@<TRIPOS>MOLECULE
4COF_BEN_E500
 9 9 0 0 0
SMALL
GASTEIGER

@<TRIPOS>ATOM
      1  C1       186.9940  222.9850  243.1180 C.ar  500  BEN500      0.0975
      2  C2       187.2010  223.4730  241.7770 C.ar  500  BEN500      0.0080
      3  C3       186.3620  223.0610  240.7130 C.ar  500  BEN500      0.0003
      4  C4       185.3030  222.1620  240.9990 C.ar  500  BEN500      0.0000
      5  C5       185.0800  221.6550  242.3060 C.ar  500  BEN500      0.0003
      6  C6       185.9130  222.0650  243.3680 C.ar  500  BEN500      0.0080
      7  C        187.9000  223.4150  244.2160 C.2   500  BEN500      0.4766
      8  N1       187.6910  222.9380  245.3990 N.pl3 500  BEN500      0.2047
      9  N2       188.9420  224.3070  244.0010 N.pl3 500  BEN500      0.2047
@<TRIPOS>BOND
     1     3     4   ar
     2     3     2   ar
     3     4     5   ar
     4     2     1   ar
     5     5     6   ar
     6     1     6   ar
     7     1     7    1
     8     9     7    2
     9     7     8    1
