@<TRIPOS>MOLECULE
7PBZ_HSM_C601
 8 8 0 0 0
SMALL
GASTEIGER

@<TRIPOS>ATOM
      1 N         188.9120  224.1740  244.0830 N.3     1  UNL1       -0.1310
      2 C         187.9630  223.2800  243.4450 C.3     1  UNL1        0.1156
      3 C         187.0310  222.6970  244.5060 C.3     1  UNL1        0.0679
      4 C         185.9300  221.8510  243.8670 C.ar    1  UNL1        0.0813
      5 N         184.9030  221.3350  244.5020 N.ar    1  UNL1       -0.2268
      6 C         185.8280  221.4960  242.5560 C.ar    1  UNL1        0.1154
      7 C         184.1560  220.6620  243.6130 C.ar    1  UNL1        0.1986
      8 N         184.7420  220.7700  242.4150 N.ar    1  UNL1       -0.2212
@<TRIPOS>BOND
     1     2     1    1
     2     3     2    1
     3     4     3    1
     4     5     4   ar
     5     6     4   ar
     6     7     5   ar
     7     8     7   ar
     8     8     6   ar
