@<TRIPOS>MOLECULE
7QN7_HSM_C503
 8 8 0 0 0
SMALL
GASTEIGER

@<TRIPOS>ATOM
      1 N         188.9810  224.7340  243.8620 N.3     1  UNL1       -0.1310
      2 C         187.6480  224.1560  243.6800 C.3     1  UNL1        0.1156
      3 C         187.8040  222.7130  243.1750 C.3     1  UNL1        0.0679
      4 C         186.4870  222.0550  242.9140 C.ar    1  UNL1        0.0813
      5 N         185.5770  221.8210  243.9280 N.ar    1  UNL1       -0.2268
      6 C         185.9730  221.5990  241.7400 C.ar    1  UNL1        0.1154
      7 C         184.5440  221.2350  243.3420 C.ar    1  UNL1        0.1986
      8 N         184.7400  221.0820  242.0280 N.ar    1  UNL1       -0.2212
@<TRIPOS>BOND
     1     2     1    1
     2     3     2    1
     3     4     3    1
     4     5     4   ar
     5     6     4   ar
     6     7     5   ar
     7     8     7   ar
     8     8     6   ar
