@<TRIPOS>MOLECULE
7QN8_HSM_B501
 8 8 0 0 0
SMALL
GASTEIGER

@<TRIPOS>ATOM
      1 N         188.5500  224.0550  243.8540 N.3     1  UNL1       -0.1310
      2 C         187.3240  223.2640  243.9900 C.3     1  UNL1        0.1156
      3 C         186.9590  222.6910  242.6100 C.3     1  UNL1        0.0679
      4 C         185.6630  221.9450  242.6260 C.ar    1  UNL1        0.0813
      5 N         184.7530  222.0900  243.6560 N.ar    1  UNL1       -0.2268
      6 C         185.1670  221.0670  241.7140 C.ar    1  UNL1        0.1154
      7 C         183.7380  221.3030  243.3380 C.ar    1  UNL1        0.1986
      8 N         183.9460  220.6680  242.1790 N.ar    1  UNL1       -0.2212
@<TRIPOS>BOND
     1     2     1    1
     2     3     2    1
     3     4     3    1
     4     5     4   ar
     5     6     4   ar
     6     7     5   ar
     7     8     7   ar
     8     8     6   ar
