@<TRIPOS>MOLECULE
7QN9_HSM_B501
 8 8 0 0 0
SMALL
GASTEIGER

@<TRIPOS>ATOM
      1 N         189.0460  225.2330  243.2980 N.3     1  UNL1       -0.1310
      2 C         188.0800  224.3980  244.0150 C.3     1  UNL1        0.1156
      3 C         188.3680  222.9260  243.6770 C.3     1  UNL1        0.0679
      4 C         187.4170  221.9870  244.3480 C.ar    1  UNL1        0.0813
      5 N         187.6740  221.4650  245.6020 N.ar    1  UNL1       -0.2268
      6 C         186.2280  221.5050  243.9000 C.ar    1  UNL1        0.1154
      7 C         186.6400  220.6850  245.8730 C.ar    1  UNL1        0.1986
      8 N         185.7470  220.6800  244.8790 N.ar    1  UNL1       -0.2212
@<TRIPOS>BOND
     1     2     1    1
     2     3     2    1
     3     4     3    1
     4     5     4   ar
     5     6     4   ar
     6     7     5   ar
     7     8     6   ar
     8     8     7   ar
