@<TRIPOS>MOLECULE
7QND_HSM_B501
 8 8 0 0 0
SMALL
GASTEIGER

@<TRIPOS>ATOM
      1 N         189.0320  224.7720  244.2190 N.3     1  UNL1       -0.1310
      2 C         188.2810  223.9500  243.2690 C.3     1  UNL1        0.1156
      3 C         187.1710  223.2090  244.0310 C.3     1  UNL1        0.0679
      4 C         186.3100  222.3900  243.1260 C.ar    1  UNL1        0.0813
      5 N         185.1590  221.7720  243.5790 N.ar    1  UNL1       -0.2268
      6 C         186.4680  222.1200  241.8020 C.ar    1  UNL1        0.1154
      7 C         184.6570  221.1520  242.5230 C.ar    1  UNL1        0.1986
      8 N         185.4120  221.3340  241.4340 N.ar    1  UNL1       -0.2212
@<TRIPOS>BOND
     1     2     1    1
     2     3     2    1
     3     4     3    1
     4     5     4   ar
     5     6     4   ar
     6     7     5   ar
     7     8     7   ar
     8     8     6   ar
