@<TRIPOS>MOLECULE
9FF0_HSM_C501
 8 8 0 0 0
SMALL
GASTEIGER

@<TRIPOS>ATOM
      1 N         188.8970  224.5620  242.8490 N.3     1  UNL1       -0.1310
      2 C         188.0790  224.5180  244.0870 C.3     1  UNL1        0.1156
      3 C         187.7410  223.0960  244.4730 C.3     1  UNL1        0.0679
      4 C         186.7960  222.4280  243.5260 C.ar    1  UNL1        0.0813
      5 N         185.7610  221.6230  243.9730 N.ar    1  UNL1       -0.2268
      6 C         186.7700  222.4740  242.1650 C.ar    1  UNL1        0.1154
      7 C         185.1450  221.2090  242.8760 C.ar    1  UNL1        0.1986
      8 N         185.7180  221.6940  241.7680 N.ar    1  UNL1       -0.2212
@<TRIPOS>BOND
     1     2     1    1
     2     3     2    1
     3     4     3    1
     4     5     4   ar
     5     6     4   ar
     6     7     5   ar
     7     8     7   ar
     8     8     6   ar
