@<TRIPOS>MOLECULE
9FF1_HSM_D501
 8 8 0 0 0
SMALL
GASTEIGER

@<TRIPOS>ATOM
      1 N         188.8040  224.1360  243.1410 N.3     1  UNL1       -0.1310
      2 C         187.9000  223.9470  244.3040 C.3     1  UNL1        0.1156
      3 C         187.4390  222.5110  244.4140 C.3     1  UNL1        0.0679
      4 C         186.5020  222.0990  243.3240 C.ar    1  UNL1        0.0813
      5 N         185.3540  221.3670  243.5850 N.ar    1  UNL1       -0.2268
      6 C         186.5860  222.3340  241.9840 C.ar    1  UNL1        0.1154
      7 C         184.7840  221.1830  242.4030 C.ar    1  UNL1        0.1986
      8 N         185.4890  221.7470  241.4150 N.ar    1  UNL1       -0.2212
@<TRIPOS>BOND
     1     2     1    1
     2     3     2    1
     3     4     3    1
     4     5     4   ar
     5     6     4   ar
     6     7     5   ar
     7     8     7   ar
     8     8     6   ar
