@<TRIPOS>MOLECULE
2R3G_SC9_A501
 24 27 0 0 0
SMALL
GASTEIGER

@<TRIPOS>ATOM
      1 C           5.9590  -25.8910  -26.5390 C.ar    1  UNL1        0.1023
      2 N           6.0100  -25.1210  -25.3950 N.ar    1  UNL1       -0.2837
      3 C           4.9290  -25.4230  -24.6490 C.ar    1  UNL1        0.1814
      4 N           4.1590  -26.3490  -25.2560 N.ar    1  UNL1       -0.2222
      5 C           4.8090  -26.6390  -26.4090 C.ar    1  UNL1        0.1196
      6 C           6.8680  -24.1450  -25.0120 C.ar    1  UNL1        0.1008
      7 C           6.6940  -23.5060  -23.7890 C.ar    1  UNL1        0.1025
      8 N           5.6020  -23.8200  -23.0050 N.ar    1  UNL1       -0.2248
      9 C           4.7310  -24.7340  -23.3840 C.ar    1  UNL1        0.1829
     10 N           3.6310  -25.0870  -22.6550 N.pl3   1  UNL1       -0.2129
     11 C           3.5350  -24.4930  -21.3170 C.3     1  UNL1        0.1418
     12 C           2.7220  -23.2390  -21.3920 C.ar    1  UNL1        0.0186
     13 C           1.3570  -23.2750  -21.7310 C.ar    1  UNL1        0.0006
     14 C           0.6420  -22.0680  -21.7990 C.ar    1  UNL1        0.0204
     15 C           1.3240  -20.8730  -21.5390 C.ar    1  UNL1        0.0989
     16 N           2.6320  -20.8190  -21.1940 N.ar    1  UNL1       -0.2426
     17 C           3.2920  -21.9830  -21.1340 C.ar    1  UNL1        0.0963
     18 C           7.6600  -22.5220  -23.2000 C.ar    1  UNL1        0.0466
     19 C           9.0250  -22.3620  -23.6210 C.ar    1  UNL1        0.1416
     20 C           9.8780  -21.4830  -22.9520 C.ar    1  UNL1        0.0297
     21 C           9.4360  -20.7650  -21.8340 C.ar    1  UNL1        0.0023
     22 C           8.1080  -20.9010  -21.4140 C.ar    1  UNL1        0.0002
     23 C           7.2410  -21.7870  -22.0790 C.ar    1  UNL1        0.0038
     24 F           9.5320  -22.9980  -24.6570 F       1  UNL1       -0.2041
@<TRIPOS>BOND
     1     2     1   ar
     2     3     2   ar
     3     4     3   ar
     4     5     4   ar
     5     5     1   ar
     6     6     2   ar
     7     7     6   ar
     8     8     7   ar
     9     9     3   ar
    10     9     8   ar
    11    10     9    1
    12    11    10    1
    13    12    11    1
    14    13    12   ar
    15    14    13   ar
    16    15    14   ar
    17    16    15   ar
    18    17    12   ar
    19    17    16   ar
    20    18     7    1
    21    19    18   ar
    22    20    19   ar
    23    21    20   ar
    24    22    21   ar
    25    23    18   ar
    26    23    22   ar
    27    24    19    1
