@<TRIPOS>MOLECULE
3QWJ_X6A_A483
 22 23 0 0 0
SMALL
GASTEIGER

@<TRIPOS>ATOM
      1 N           7.3060  -24.3750  -24.1030 N.pl3   1  UNL1       -0.2325
      2 N          10.2960  -21.8810  -22.7720 N.am    1  UNL1       -0.0837
      3 N           3.2490  -25.7130  -26.1200 N.ar    1  UNL1       -0.2098
      4 N           5.1260  -25.5840  -27.6450 N.ar    1  UNL1       -0.2098
      5 N           5.9880  -19.5200  -21.8640 N.pl3   1  UNL1        0.0818
      6 N           2.9880  -25.6730  -28.3460 N.pl3   1  UNL1       -0.0860
      7 C           7.6310  -20.9930  -22.6840 C.ar    1  UNL1        0.0821
      8 C           8.0030  -22.2510  -23.2700 C.ar    1  UNL1        0.0776
      9 C           6.9890  -23.2180  -23.5740 C.ar    1  UNL1        0.0714
     10 C           5.6330  -22.8920  -23.2980 C.ar    1  UNL1        0.0338
     11 C           5.2650  -21.6590  -22.7320 C.ar    1  UNL1        0.1281
     12 C           6.2690  -20.6750  -22.4020 C.ar    1  UNL1        0.3005
     13 C           9.3310  -22.4880  -23.5280 C.2     1  UNL1        0.2856
     14 C           6.4410  -25.5890  -24.0450 C.3     1  UNL1        0.1416
     15 C           5.5150  -25.6190  -25.2320 C.ar    1  UNL1        0.0378
     16 C           4.1280  -25.6940  -25.0820 C.ar    1  UNL1        0.1009
     17 C           3.7930  -25.6570  -27.3660 C.ar    1  UNL1        0.2566
     18 C           5.9640  -25.5650  -26.5570 C.ar    1  UNL1        0.1009
     19 O           9.6610  -23.2220  -24.4410 O.2     1  UNL1       -0.2666
     20 O           4.7640  -19.1690  -21.5600 O.2     1  UNL1        0.0415
     21 O           6.9380  -18.6620  -21.5990 O.co2   1  UNL1       -0.5760
     22 CL          3.6010  -21.4080  -22.4830 Cl      1  UNL1       -0.0758
@<TRIPOS>UNITY_ATOM_ATTR
5 1
charge 1
21 1
charge -1
@<TRIPOS>BOND
     1     8     7   ar
     2     9     8   ar
     3     9     1    1
     4    10     9   ar
     5    11    10   ar
     6    12    11   ar
     7    12     7   ar
     8    12     5    1
     9    13     8    1
    10    13     2   am
    11    14     1    1
    12    15    14    1
    13    16     3   ar
    14    16    15   ar
    15    17     6    1
    16    17     4   ar
    17    17     3   ar
    18    18     4   ar
    19    18    15   ar
    20    19    13    2
    21    20     5    2
    22    21     5    1
    23    22    11    1
