@<TRIPOS>MOLECULE
3QXO_X65_A668
 24 25 0 0 0
SMALL
GASTEIGER

@<TRIPOS>ATOM
      1 C           5.4650  -23.2800  -22.9840 C.ar    1  UNL1        0.0226
      2 C           5.1070  -22.0740  -22.3430 C.ar    1  UNL1        0.0766
      3 C           6.0440  -20.9900  -22.2260 C.ar    1  UNL1        0.2903
      4 C           7.3480  -21.1670  -22.7770 C.ar    1  UNL1        0.0812
      5 C           7.7640  -22.3760  -23.4360 C.ar    1  UNL1        0.0776
      6 C           6.7940  -23.4750  -23.5640 C.ar    1  UNL1        0.0705
      7 N           7.1840  -24.6340  -24.1020 N.pl3   1  UNL1       -0.2327
      8 N           5.7220  -19.8440  -21.6270 N.pl3   1  UNL1        0.0809
      9 O           6.6030  -18.8400  -21.5290 O.2     1  UNL1        0.0415
     10 O           4.6140  -19.6630  -21.1470 O.co2   1  UNL1       -0.5760
     11 C           9.0840  -22.4800  -23.8380 C.2     1  UNL1        0.2856
     12 N          10.0960  -21.8120  -23.2240 N.am    1  UNL1       -0.0837
     13 O           9.4190  -23.2770  -24.8640 O.2     1  UNL1       -0.2666
     14 C           6.4230  -25.8720  -24.1820 C.3     1  UNL1        0.1385
     15 C           3.5310  -26.0190  -27.4200 C.ar    1  UNL1        0.1250
     16 C           3.2040  -26.5180  -26.1320 C.ar    1  UNL1        0.0197
     17 C           4.1530  -26.4640  -25.0900 C.ar    1  UNL1       -0.0012
     18 C           5.4400  -25.9100  -25.3220 C.ar    1  UNL1       -0.0006
     19 C           5.7770  -25.4030  -26.6290 C.ar    1  UNL1       -0.0012
     20 C           4.8170  -25.4580  -27.6750 C.ar    1  UNL1        0.0197
     21 S           2.3430  -26.1010  -28.6910 S.O2    1  UNL1        0.0935
     22 O           2.8840  -26.9210  -29.9940 O.2     1  UNL1       -0.1503
     23 O           1.0690  -26.7340  -28.2330 O.2     1  UNL1       -0.1503
     24 N           1.9630  -24.7660  -29.2510 N.3     1  UNL1        0.0392
@<TRIPOS>UNITY_ATOM_ATTR
8 1
charge 1
10 1
charge -1
@<TRIPOS>BOND
     1     2     1   ar
     2     3     2   ar
     3     4     3   ar
     4     5     4   ar
     5     6     5   ar
     6     6     1   ar
     7     7     6    1
     8     8     3    1
     9     9     8    2
    10    10     8    1
    11    11     5    1
    12    12    11   am
    13    13    11    2
    14    14     7    1
    15    16    15   ar
    16    17    16   ar
    17    18    17   ar
    18    18    14    1
    19    19    18   ar
    20    20    15   ar
    21    20    19   ar
    22    21    15    1
    23    22    21    2
    24    23    21    2
    25    21    24    1
