@<TRIPOS>MOLECULE
3QZI_X72_A512
 21 22 0 0 0
SMALL
GASTEIGER

@<TRIPOS>ATOM
      1 N           7.3650  -24.3450  -24.0770 N.pl3   1  UNL1       -0.2325
      2 N          10.3290  -21.8680  -22.7390 N.am    1  UNL1       -0.0837
      3 N           3.6400  -26.4500  -26.3020 N.ar    1  UNL1       -0.2227
      4 N           5.4070  -25.4700  -27.6190 N.ar    1  UNL1       -0.2227
      5 N           6.0090  -19.5220  -21.7940 N.pl3   1  UNL1        0.0818
      6 C           7.6600  -20.9760  -22.6280 C.ar    1  UNL1        0.0821
      7 C           8.0410  -22.2240  -23.2300 C.ar    1  UNL1        0.0776
      8 C           7.0350  -23.1970  -23.5410 C.ar    1  UNL1        0.0714
      9 C           5.6670  -22.8870  -23.2640 C.ar    1  UNL1        0.0338
     10 C           5.2940  -21.6530  -22.6840 C.ar    1  UNL1        0.1281
     11 C           6.2970  -20.6690  -22.3400 C.ar    1  UNL1        0.3005
     12 C           9.3720  -22.4480  -23.5010 C.2     1  UNL1        0.2856
     13 C           6.5340  -25.5700  -23.9660 C.3     1  UNL1        0.1416
     14 C           5.7010  -25.7350  -25.2120 C.ar    1  UNL1        0.0377
     15 C           4.4220  -26.2930  -25.1900 C.ar    1  UNL1        0.0996
     16 C           4.1750  -26.0270  -27.4770 C.ar    1  UNL1        0.1989
     17 C           6.1430  -25.3380  -26.4810 C.ar    1  UNL1        0.0996
     18 O           9.7040  -23.1190  -24.4670 O.2     1  UNL1       -0.2666
     19 O           4.8810  -19.3290  -21.1580 O.2     1  UNL1        0.0415
     20 O           6.8660  -18.5190  -21.8230 O.co2   1  UNL1       -0.5760
     21 CL          3.6190  -21.3930  -22.4260 Cl      1  UNL1       -0.0758
@<TRIPOS>UNITY_ATOM_ATTR
5 1
charge 1
20 1
charge -1
@<TRIPOS>BOND
     1     7     6   ar
     2     8     7   ar
     3     8     1    1
     4     9     8   ar
     5    10     9   ar
     6    11    10   ar
     7    11     6   ar
     8    11     5    1
     9    12     7    1
    10    12     2   am
    11    13     1    1
    12    14    13    1
    13    15     3   ar
    14    15    14   ar
    15    16     4   ar
    16    16     3   ar
    17    17     4   ar
    18    17    14   ar
    19    18    12    2
    20    19     5    2
    21    20     5    1
    22    21    10    1
