@<TRIPOS>MOLECULE
3SW4_18K_A299
 23 25 0 0 0
SMALL
GASTEIGER

@<TRIPOS>ATOM
      1 S           5.4700  -22.1520  -22.1660 S.2     1  UNL1       -0.0472
      2 C           8.3600  -19.6900  -20.7320 C.3     1  UNL1        0.0527
      3 N           5.9180  -20.0850  -20.6760 N.ar    1  UNL1       -0.2258
      4 C           7.1590  -20.4720  -21.1460 C.ar    1  UNL1        0.0688
      5 N           3.6530  -20.6370  -20.8930 N.pl3   1  UNL1       -0.0998
      6 C           4.9540  -20.8510  -21.1310 C.ar    1  UNL1        0.2003
      7 N           9.8450  -23.9240  -24.1850 N.ar    1  UNL1       -0.2106
      8 C           7.1210  -21.5930  -21.9930 C.ar    1  UNL1        0.0635
      9 N           8.0470  -25.0450  -25.0270 N.pl3   1  UNL1       -0.1777
     10 C           8.1500  -22.3570  -22.7190 C.ar    1  UNL1        0.0930
     11 N           2.9610  -27.2120  -26.2610 N.pl3   1  UNL1       -0.3041
     12 C           9.5150  -22.1200  -22.6130 C.ar    1  UNL1        0.0405
     13 N           7.6390  -23.3070  -23.5160 N.ar    1  UNL1       -0.2116
     14 C          10.3120  -22.9500  -23.3860 C.ar    1  UNL1        0.1035
     15 C           8.5140  -24.0660  -24.2120 C.ar    1  UNL1        0.2409
     16 C           6.7710  -25.5700  -25.3150 C.ar    1  UNL1        0.0737
     17 C           6.6160  -26.3930  -26.4290 C.ar    1  UNL1        0.0179
     18 C           5.3690  -26.8920  -26.7630 C.ar    1  UNL1        0.0159
     19 C           4.2710  -26.5810  -25.9660 C.ar    1  UNL1        0.0480
     20 C           2.9180  -28.6500  -25.8560 C.3     1  UNL1        0.1122
     21 C           1.7940  -26.4590  -25.7140 C.3     1  UNL1        0.1122
     22 C           4.4120  -25.7460  -24.8550 C.ar    1  UNL1        0.0159
     23 C           5.6640  -25.2460  -24.5380 C.ar    1  UNL1        0.0179
@<TRIPOS>BOND
     1     4     3   ar
     2     4     2    1
     3     6     5    1
     4     6     1   ar
     5     6     3   ar
     6     8     1   ar
     7     8     4   ar
     8    10     8    1
     9    12    10   ar
    10    13    10   ar
    11    14    12   ar
    12    14     7   ar
    13    15    13   ar
    14    15     9    1
    15    15     7   ar
    16    16     9    1
    17    17    16   ar
    18    18    17   ar
    19    19    18   ar
    20    19    11    1
    21    20    11    1
    22    21    11    1
    23    22    19   ar
    24    23    22   ar
    25    23    16   ar
