@<TRIPOS>MOLECULE
4EK4_1CK_A301
 16 17 0 0 0
SMALL
GASTEIGER

@<TRIPOS>ATOM
      1 N           9.6610  -23.2140  -24.2260 N.ar    1  UNL1       -0.1313
      2 N           7.5990  -24.1490  -24.7570 N.am    1  UNL1       -0.1547
      3 N          10.1360  -22.2680  -23.4210 N.ar    1  UNL1       -0.1510
      4 C           9.3890  -20.5000  -21.7880 C.3     1  UNL1        0.0541
      5 O           5.6640  -23.9240  -23.6090 O.2     1  UNL1       -0.2680
      6 BR          3.4870  -28.7550  -27.8990 Br      1  UNL1       -0.0490
      7 C           4.0400  -27.3170  -25.5330 C.ar    1  UNL1        0.0068
      8 C           5.3360  -26.5770  -27.4580 C.ar    1  UNL1        0.0068
      9 C           4.6760  -26.3400  -24.7540 C.ar    1  UNL1        0.0051
     10 C           5.9560  -25.6090  -26.6570 C.ar    1  UNL1        0.0051
     11 C           8.0090  -22.2770  -23.1470 C.ar    1  UNL1        0.0545
     12 C           6.3040  -24.4740  -24.5020 C.2     1  UNL1        0.2704
     13 C           9.1640  -21.6590  -22.7720 C.ar    1  UNL1        0.0838
     14 C           4.3620  -27.4300  -26.8930 C.ar    1  UNL1        0.0346
     15 C           5.6650  -25.4740  -25.2970 C.ar    1  UNL1        0.0555
     16 C           8.3440  -23.2350  -24.0580 C.ar    1  UNL1        0.1773
@<TRIPOS>BOND
     1     3     1   ar
     2     9     7   ar
     3    10     8   ar
     4    12     5    2
     5    12     2   am
     6    13    11   ar
     7    13     3   ar
     8    13     4    1
     9    14     6    1
    10    14     7   ar
    11    14     8   ar
    12    15     9   ar
    13    15    12    1
    14    15    10   ar
    15    16    11   ar
    16    16     2    1
    17    16     1   ar
