@<TRIPOS>MOLECULE
4EK5_03K_A300
 20 22 0 0 0
SMALL
GASTEIGER

@<TRIPOS>ATOM
      1 N           7.5400  -24.2270  -24.8000 N.am    1  UNL1       -0.1547
      2 N           3.1460  -29.6620  -27.2050 N.am    1  UNL1       -0.0837
      3 N          10.1180  -22.3850  -23.6040 N.ar    1  UNL1       -0.1510
      4 N           9.6040  -23.2850  -24.3080 N.ar    1  UNL1       -0.1313
      5 O           3.4070  -28.2950  -28.9810 O.2     1  UNL1       -0.2667
      6 O           5.5880  -23.9150  -23.6640 O.2     1  UNL1       -0.2680
      7 C           3.9110  -27.3300  -25.5430 C.ar    1  UNL1        0.0048
      8 C           5.2360  -26.7160  -27.4510 C.ar    1  UNL1        0.0048
      9 C           4.5940  -26.3800  -24.7780 C.ar    1  UNL1        0.0047
     10 C           5.9090  -25.7650  -26.6990 C.ar    1  UNL1        0.0047
     11 C           7.9500  -22.2990  -23.2960 C.ar    1  UNL1        0.0545
     12 C           8.6530  -20.3370  -20.7810 C.3     1  UNL1        0.0064
     13 C           8.4720  -19.3830  -21.9750 C.3     1  UNL1        0.0064
     14 C           3.5610  -28.5460  -27.7830 C.2     1  UNL1        0.2842
     15 C           6.2560  -24.5030  -24.5160 C.2     1  UNL1        0.2704
     16 C           4.2690  -27.5250  -26.8750 C.ar    1  UNL1        0.0567
     17 C           5.5830  -25.5810  -25.3590 C.ar    1  UNL1        0.0554
     18 C           8.2820  -23.2930  -24.1500 C.ar    1  UNL1        0.1773
     19 C           9.1300  -21.7300  -22.9730 C.ar    1  UNL1        0.0831
     20 C           9.4850  -20.5300  -22.0630 C.3     1  UNL1        0.0422
@<TRIPOS>BOND
     1     4     3   ar
     2     9     7   ar
     3    10     8   ar
     4    13    12    1
     5    14     5    2
     6    14     2   am
     7    15     6    2
     8    15     1   am
     9    16    14    1
    10    16     7   ar
    11    16     8   ar
    12    17     9   ar
    13    17    15    1
    14    17    10   ar
    15    18    11   ar
    16    18     4   ar
    17    18     1    1
    18    19    11   ar
    19    19     3   ar
    20    20    19    1
    21    20    13    1
    22    20    12    1
