@<TRIPOS>MOLECULE
4FKI_09K_A301
 23 25 0 0 0
SMALL
GASTEIGER

@<TRIPOS>ATOM
      1 C           3.4690  -24.6970  -30.7920 C.3     1  UNL1        0.5753
      2 F           2.4410  -24.5870  -31.6350 F       1  UNL1       -0.1328
      3 N           7.5970  -24.5600  -24.5010 N.am    1  UNL1       -0.1582
      4 O           3.1470  -25.5800  -29.7770 O.3     1  UNL1       -0.4045
      5 C           3.8350  -25.6120  -28.5660 C.ar    1  UNL1        0.1468
      6 F           4.5240  -25.0840  -31.4870 F       1  UNL1       -0.1328
      7 N           9.6390  -23.3530  -24.2140 N.ar    1  UNL1       -0.1313
      8 O           5.5490  -24.2050  -23.5370 O.2     1  UNL1       -0.2726
      9 C           3.0810  -25.5510  -27.3750 C.ar    1  UNL1        0.0369
     10 F           3.7490  -23.5030  -30.2920 F       1  UNL1       -0.1328
     11 N          10.0450  -22.2970  -23.5200 N.ar    1  UNL1       -0.1510
     12 C           3.7380  -25.7430  -26.1460 C.ar    1  UNL1       -0.0007
     13 C           5.1450  -25.9750  -26.1300 C.ar    1  UNL1       -0.0128
     14 C           5.8590  -25.9970  -27.3200 C.ar    1  UNL1       -0.0007
     15 C           5.2360  -25.8180  -28.5720 C.ar    1  UNL1        0.0369
     16 C           5.8210  -26.2230  -24.8530 C.3     1  UNL1        0.1135
     17 C           6.2820  -24.8920  -24.2230 C.2     1  UNL1        0.2514
     18 C           8.2810  -23.4630  -24.0160 C.ar    1  UNL1        0.1771
     19 C           8.9950  -21.6700  -22.8460 C.ar    1  UNL1        0.0831
     20 C           7.8190  -22.3940  -23.1500 C.ar    1  UNL1        0.0545
     21 C           9.2540  -20.4880  -22.0200 C.3     1  UNL1        0.0422
     22 C           8.1680  -19.4610  -21.8420 C.3     1  UNL1        0.0064
     23 C           8.6130  -20.3070  -20.6680 C.3     1  UNL1        0.0064
@<TRIPOS>BOND
     1     1     2    1
     2     4     1    1
     3     5     4    1
     4     6     1    1
     5     9     5   ar
     6    10     1    1
     7    11     7   ar
     8    12     9   ar
     9    13    12   ar
    10    14    13   ar
    11    15     5   ar
    12    15    14   ar
    13    16    13    1
    14    17    16    1
    15    17     8    2
    16    17     3   am
    17    18     7   ar
    18    18     3    1
    19    19    11   ar
    20    20    18   ar
    21    20    19   ar
    22    21    19    1
    23    22    21    1
    24    23    22    1
    25    23    21    1
