@<TRIPOS>MOLECULE
4FKL_CK2_A300
 14 15 0 0 0
SMALL
GASTEIGER

@<TRIPOS>ATOM
      1 C           1.7530  -20.9940  -21.2940 C.3     1  UNL1        0.0594
      2 C           3.2130  -21.3420  -21.5020 C.ar    1  UNL1        0.0883
      3 S           3.9840  -21.6280  -23.0020 S.2     1  UNL1       -0.0696
      4 N           4.0480  -21.4430  -20.4890 N.ar    1  UNL1       -0.2470
      5 C           5.3340  -21.7300  -20.8480 C.ar    1  UNL1        0.0670
      6 C           6.2670  -21.8890  -19.7430 C.3     1  UNL1        0.0527
      7 C           5.5280  -21.8630  -22.2350 C.ar    1  UNL1        0.0618
      8 C           6.7460  -22.1710  -22.9120 C.ar    1  UNL1        0.0930
      9 N           7.9430  -21.6980  -22.4800 N.ar    1  UNL1       -0.2105
     10 C           6.7290  -22.9820  -24.0610 C.ar    1  UNL1        0.0405
     11 C           7.8900  -23.2680  -24.7690 C.ar    1  UNL1        0.1035
     12 N           9.0560  -22.8120  -24.3040 N.ar    1  UNL1       -0.2096
     13 C           9.0650  -21.9950  -23.2090 C.ar    1  UNL1        0.2566
     14 N          10.1760  -21.5170  -22.7510 N.pl3   1  UNL1       -0.0860
@<TRIPOS>BOND
     1     2     1    1
     2     3     2   ar
     3     4     2   ar
     4     5     4   ar
     5     6     5    1
     6     7     3   ar
     7     7     5   ar
     8     8     7    1
     9     9     8   ar
    10    10     8   ar
    11    11    10   ar
    12    12    11   ar
    13    13    12   ar
    14    13     9   ar
    15    14    13    1
