@<TRIPOS>MOLECULE
5ANE_SZL_A1299
 11 12 0 0 0
SMALL
GASTEIGER

@<TRIPOS>ATOM
      1 C           8.0510  -21.6160  -22.6280 C.ar    1  UNL1        0.1717
      2 N           8.3880  -20.8010  -21.6720 N.ar    1  UNL1       -0.2161
      3 C           9.7010  -20.7240  -21.5840 C.ar    1  UNL1        0.2005
      4 N          10.2440  -21.4910  -22.5490 N.ar    1  UNL1       -0.2031
      5 C           9.2040  -22.0350  -23.2010 C.ar    1  UNL1        0.1879
      6 N           9.1460  -22.8680  -24.2660 N.ar    1  UNL1       -0.2030
      7 C           7.9750  -23.3100  -24.7690 C.ar    1  UNL1        0.2030
      8 N           6.8130  -22.8710  -24.1470 N.ar    1  UNL1       -0.1879
      9 C           6.8690  -22.0060  -23.1400 C.ar    1  UNL1        0.2477
     10 O           5.7710  -21.5430  -22.5260 O.3     1  UNL1       -0.4550
     11 C           4.5630  -22.0010  -23.0290 C.3     1  UNL1        0.2543
@<TRIPOS>BOND
     1     2     1   ar
     2     3     2   ar
     3     4     3   ar
     4     5     4   ar
     5     5     1   ar
     6     6     5   ar
     7     7     6   ar
     8     8     7   ar
     9     9     8   ar
    10     9     1   ar
    11    10     9    1
    12    11    10    1
