@<TRIPOS>MOLECULE
6GUK_FC8_A301
 27 30 0 0 0
SMALL
GASTEIGER

@<TRIPOS>ATOM
      1 C           7.8740  -22.9700  -23.9380 C.ar    1  UNL1        0.1503
      2 C           1.8550  -21.6830  -22.8750 C.3     1  UNL1        0.0232
      3 C           6.7320  -23.6560  -24.3980 C.ar    1  UNL1        0.1754
      4 C           5.8070  -25.4640  -25.8440 C.ar    1  UNL1        0.0730
      5 C           4.8720  -26.0750  -25.0120 C.ar    1  UNL1        0.0279
      6 C           5.7030  -25.6070  -27.2210 C.ar    1  UNL1        0.0166
      7 C           4.7110  -26.4110  -27.7630 C.ar    1  UNL1        0.0022
      8 C           3.8110  -27.0420  -26.9520 C.ar    1  UNL1        0.0115
      9 C           3.9390  -26.8850  -25.5940 C.ar    1  UNL1        0.0590
     10 C           5.4690  -22.3690  -22.9180 C.ar    1  UNL1        0.2391
     11 C           3.0330  -22.6370  -23.0870 C.3     1  UNL1        0.1130
     12 N           8.8920  -21.4580  -22.6870 N.ar    1  UNL1       -0.2943
     13 N           9.2270  -23.0830  -24.2390 N.ar    1  UNL1       -0.2194
     14 C           9.7910  -22.1690  -23.4700 C.ar    1  UNL1        0.1798
     15 N           6.8230  -24.6330  -25.3400 N.pl3   1  UNL1       -0.1927
     16 C           8.6220  -19.0420  -21.9120 C.3     1  UNL1        0.0266
     17 C           9.2120  -20.4180  -21.6920 C.3     1  UNL1        0.1091
     18 CL          2.8440  -27.7020  -24.5300 Cl      1  UNL1       -0.0822
     19 N           5.5280  -23.3600  -23.8650 N.ar    1  UNL1       -0.1940
     20 N           4.2240  -22.1030  -22.4370 N.pl3   1  UNL1       -0.2041
     21 C           0.6060  -22.2460  -23.5640 C.3     1  UNL1        0.0019
     22 C           0.2890  -23.6590  -23.1050 C.3     1  UNL1        0.0016
     23 C           1.4900  -24.5890  -23.2790 C.3     1  UNL1        0.0208
     24 C           2.7330  -24.0490  -22.5740 C.3     1  UNL1        0.1117
     25 N           2.5400  -24.0910  -21.0840 N.3     1  UNL1       -0.1311
     26 N           6.4890  -21.6500  -22.4070 N.ar    1  UNL1       -0.1933
     27 C           7.6860  -22.0120  -22.9520 C.ar    1  UNL1        0.1685
@<TRIPOS>BOND
     1     3     1   ar
     2     5     4   ar
     3     6     4   ar
     4     7     6   ar
     5     8     7   ar
     6     9     8   ar
     7     9     5   ar
     8    11     2    1
     9    13     1   ar
    10    14    13   ar
    11    14    12   ar
    12    15     4    1
    13    15     3    1
    14    17    16    1
    15    17    12    1
    16    18     9    1
    17    19    10   ar
    18    19     3   ar
    19    11    20    1
    20    20    10    1
    21    21     2    1
    22    22    21    1
    23    23    22    1
    24    24    23    1
    25    24    11    1
    26    24    25    1
    27    26    10   ar
    28    27     1   ar
    29    27    26   ar
    30    27    12   ar
