@<TRIPOS>MOLECULE
6Q4D_HHT_A301
 13 13 0 0 0
SMALL
GASTEIGER

@<TRIPOS>ATOM
      1 C           5.5470  -21.6210  -21.8140 C.ar    1  UNL1        0.0376
      2 C           5.9830  -22.0180  -20.5660 C.ar    1  UNL1        0.0066
      3 C           5.1000  -22.1160  -19.5140 C.ar    1  UNL1       -0.0002
      4 C           3.7560  -21.8570  -19.6800 C.ar    1  UNL1        0.0231
      5 C           2.7860  -22.0280  -18.5630 C.3     1  UNL1        0.1433
      6 C           2.4400  -20.8310  -17.7170 C.2     1  UNL1        0.3693
      7 C           4.2070  -21.2730  -21.9980 C.ar    1  UNL1        0.0433
      8 C           1.4790  -20.7820  -22.3170 C.3     1  UNL1        0.2525
      9 O           1.9940  -21.1120  -21.0440 O.3     1  UNL1       -0.4717
     10 C           3.3110  -21.4220  -20.9650 C.ar    1  UNL1        0.1357
     11 BR          6.7400  -21.5760  -23.2360 Br      1  UNL1       -0.0489
     12 O           1.5270  -20.9810  -16.8860 O.co2   1  UNL1       -0.2453
     13 O           3.0950  -19.7840  -17.8560 O.co2   1  UNL1       -0.2453
@<TRIPOS>BOND
     1     2     1   ar
     2     3     2   ar
     3     4     3   ar
     4     5     4    1
     5     6     5    1
     6     7     1   ar
     7     9     8    1
     8    10     4   ar
     9    10     7   ar
    10    10     9    1
    11    11     1    1
    12    12     6   ar
    13    13     6   ar
