@<TRIPOS>MOLECULE
6Q4D_HHT_A301
 13 13 0 0 0
SMALL
GASTEIGER

@<TRIPOS>ATOM
      1 C           5.4560  -21.6100  -21.7820 C.ar    1  UNL1        0.0376
      2 C           5.8090  -21.9660  -20.4950 C.ar    1  UNL1        0.0066
      3 C           4.8560  -22.0430  -19.5050 C.ar    1  UNL1       -0.0002
      4 C           3.5240  -21.8050  -19.7720 C.ar    1  UNL1        0.0231
      5 C           2.4800  -21.9540  -18.7210 C.3     1  UNL1        0.1433
      6 C           2.0640  -20.7380  -17.9370 C.2     1  UNL1        0.3693
      7 C           4.1300  -21.2830  -22.0700 C.ar    1  UNL1        0.0433
      8 C           1.4260  -20.8340  -22.5910 C.3     1  UNL1        0.2525
      9 O           1.8540  -21.1210  -21.2760 O.3     1  UNL1       -0.4717
     10 C           3.1650  -21.4130  -21.0970 C.ar    1  UNL1        0.1357
     11 BR          6.7460  -21.5930  -23.1190 Br      1  UNL1       -0.0489
     12 O           1.0970  -20.8740  -17.1660 O.co2   1  UNL1       -0.2453
     13 O           2.7170  -19.6870  -18.0610 O.co2   1  UNL1       -0.2453
@<TRIPOS>BOND
     1     2     1   ar
     2     3     2   ar
     3     4     3   ar
     4     5     4    1
     5     6     5    1
     6     7     1   ar
     7     9     8    1
     8    10     4   ar
     9    10     7   ar
    10    10     9    1
    11    11     1    1
    12    12     6   ar
    13    13     6   ar
