@<TRIPOS>MOLECULE
7SA0_8KQ_A305
 43 46 0 0 0
SMALL
GASTEIGER

@<TRIPOS>ATOM
      1  C10        4.8840  -26.0300  -25.9840 C.ar  305  8KQ305     -0.0174
      2  C13        3.5830  -26.6070  -29.5140 C.ar  305  8KQ305     -0.0611
      3  C15        2.4300  -27.8680  -27.8040 C.ar  305  8KQ305     -0.0378
      4  C20        5.8710  -25.6480  -23.2270 C.3   305  8KQ305     -0.0289
      5  C21        8.3920  -21.9590  -22.7560 C.ar  305  8KQ305      0.0844
      6  C22        9.7250  -22.2490  -23.4400 C.2   305  8KQ305      0.3883
      7  C02        7.3140  -19.4220  -20.2090 C.3   305  8KQ305      0.4174
      8  C03        7.2480  -20.5800  -21.1890 C.ar  305  8KQ305      0.0557
      9  C04        6.0810  -21.2850  -21.4160 C.ar  305  8KQ305     -0.0483
     10  C05        6.0660  -22.3400  -22.3160 C.ar  305  8KQ305     -0.0395
     11  C06        7.2340  -22.6810  -23.0120 C.ar  305  8KQ305      0.0416
     12  C08        6.0070  -24.5320  -24.2630 C.3   305  8KQ305      0.0250
     13  C09        6.0620  -25.0730  -25.6880 C.3   305  8KQ305     -0.0070
     14  C11        4.2460  -26.3940  -27.1970 C.ar  305  8KQ305      0.0032
     15  C12        4.4120  -26.0450  -28.5470 C.ar  305  8KQ305     -0.0523
     16  C14        2.5930  -27.5190  -29.1410 C.ar  305  8KQ305     -0.0598
     17  C16        3.2610  -27.3020  -26.8240 C.ar  305  8KQ305      0.0469
     18  C18        4.2580  -26.7320  -24.9510 C.ar  305  8KQ305      0.0203
     19  C19        4.6960  -26.5760  -23.4660 C.3   305  8KQ305     -0.0105
     20  C25        8.4070  -20.9210  -21.8480 C.ar  305  8KQ305     -0.0342
     21  F01        7.5100  -18.2680  -20.9240 F     305  8KQ305     -0.1659
     22  F26        8.3640  -19.5790  -19.3640 F     305  8KQ305     -0.1659
     23  F27        6.1280  -19.3630  -19.5440 F     305  8KQ305     -0.1659
     24  N07        7.2340  -23.7630  -23.9810 N.pl3 305  8KQ305     -0.3400
     25  N17        3.2920  -27.4830  -25.4850 N.ar  305  8KQ305     -0.3577
     26  O23       10.7180  -21.5780  -23.0460 O.co2 305  8KQ305     -0.2405
     27  O24        9.8240  -23.1460  -24.3170 O.co2 305  8KQ305     -0.2405
     28 H131        3.7060  -26.3370  -30.5560 H     305  8KQ305      0.0618
     29 H151        1.6630  -28.5780  -27.5180 H     305  8KQ305      0.0638
     30 H201        5.7550  -25.1940  -22.2480 H     305  8KQ305      0.0287
     31 H202        6.7810  -26.2390  -23.2380 H     305  8KQ305      0.0287
     32 H041        5.1730  -21.0120  -20.8900 H     305  8KQ305      0.0624
     33 H051        5.1530  -22.8990  -22.4810 H     305  8KQ305      0.0636
     34 H081        5.1630  -23.8580  -24.1790 H     305  8KQ305      0.0501
     35 H091        6.0240  -24.2410  -26.3830 H     305  8KQ305      0.0332
     36 H092        6.9950  -25.6080  -25.8260 H     305  8KQ305      0.0332
     37 H121        5.1840  -25.3400  -28.8340 H     305  8KQ305      0.0624
     38 H141        1.9500  -27.9550  -29.8940 H     305  8KQ305      0.0618
     39 H192        4.9620  -27.5570  -23.0890 H     305  8KQ305      0.0328
     40 H191        3.8500  -26.1970  -22.9040 H     305  8KQ305      0.0328
     41 H251        9.3250  -20.3780  -21.6550 H     305  8KQ305      0.0632
     42 H071        8.0810  -23.9910  -24.4640 H     305  8KQ305      0.1464
     43 H171        2.6830  -28.0880  -24.9720 H     305  8KQ305      0.1656
@<TRIPOS>BOND
     1    28     2    1
     2    38    16    1
     3     2    16   ar
     4     2    15   ar
     5    16     3   ar
     6    37    15    1
     7    15    14   ar
     8     3    29    1
     9     3    17   ar
    10    14    17   ar
    11    14     1   ar
    12    17    25   ar
    13    35    13    1
    14     1    13    1
    15     1    18   ar
    16    36    13    1
    17    13    12    1
    18    25    43    1
    19    25    18   ar
    20    18    19    1
    21    42    24    1
    22    27     6   ar
    23    12    34    1
    24    12    24    1
    25    12     4    1
    26    24    11    1
    27    19     4    1
    28    19    39    1
    29    19    40    1
    30     6    26   ar
    31     6     5    1
    32    31     4    1
    33     4    30    1
    34    11     5   ar
    35    11    10   ar
    36     5    20   ar
    37    33    10    1
    38    10     9   ar
    39    20    41    1
    40    20     8   ar
    41     9     8   ar
    42     9    32    1
    43     8     7    1
    44    21     7    1
    45     7    23    1
    46     7    22    1
