@<TRIPOS>MOLECULE
7VDU_65L_A301
 32 36 0 0 0
SMALL
GASTEIGER

@<TRIPOS>ATOM
      1 C           0.2940  -26.8700  -27.5280 C.ar    1  UNL1        0.0397
      2 C           1.4460  -26.1790  -27.7070 C.ar    1  UNL1        0.1017
      3 C           3.6340  -26.2130  -26.5390 C.ar    1  UNL1        0.0852
      4 C           5.7360  -25.3040  -27.2710 C.ar    1  UNL1        0.0204
      5 N           7.5070  -24.8720  -25.7180 N.pl3   1  UNL1       -0.1918
      6 C           7.8470  -23.8440  -24.8220 C.ar    1  UNL1        0.1533
      7 C           7.3730  -22.1100  -23.1860 C.ar    1  UNL1        0.0887
      8 C           6.9360  -20.5030  -21.5850 C.ar    1  UNL1        0.2247
      9 C           5.0940  -21.5770  -19.4860 C.3     1  UNL1        0.0624
     10 C           3.8340  -21.9100  -18.6990 C.3     1  UNL1        0.0924
     11 C           4.3550  -19.1590  -19.4870 C.3     1  UNL1        0.0624
     12 C           9.2320  -20.8700  -22.1950 C.ar    1  UNL1        0.0078
     13 C           9.6280  -22.6320  -23.8920 C.ar    1  UNL1        0.1018
     14 O          -1.6660  -28.0070  -25.5220 O.3     1  UNL1       -0.2134
     15 C          -0.4760  -28.7190  -25.8550 C.3     1  UNL1        0.2292
     16 C           0.4880  -27.7490  -26.4580 C.ar    1  UNL1        0.1136
     17 N           2.3310  -26.6440  -26.7890 N.ar    1  UNL1       -0.2284
     18 N           1.6840  -27.6060  -26.0220 N.ar    1  UNL1       -0.1668
     19 C           4.4550  -25.7380  -27.5620 C.ar    1  UNL1        0.0206
     20 C           6.2050  -25.3300  -25.9610 C.ar    1  UNL1        0.0996
     21 C           6.9370  -23.0900  -24.0640 C.ar    1  UNL1        0.0553
     22 N           6.5000  -21.4100  -22.4460 N.ar    1  UNL1       -0.2115
     23 O           6.0740  -19.7920  -20.8370 O.3     1  UNL1       -0.4639
     24 C           4.8550  -20.3170  -20.3480 C.3     1  UNL1        0.1704
     25 N           3.3980  -20.7580  -17.9190 N.3     1  UNL1       -0.2178
     26 C           3.1230  -19.5590  -18.7110 C.3     1  UNL1        0.0924
     27 C           8.3030  -20.2030  -21.4360 C.ar    1  UNL1        0.0578
     28 C           8.7800  -21.8630  -23.0910 C.ar    1  UNL1        0.0372
     29 N           9.1550  -23.5700  -24.7030 N.ar    1  UNL1       -0.2273
     30 C           5.3780  -25.8120  -24.9490 C.ar    1  UNL1        0.1568
     31 F           5.7840  -25.8560  -23.6730 F       1  UNL1       -0.2027
     32 C           4.1090  -26.2310  -25.2310 C.ar    1  UNL1        0.0501
@<TRIPOS>BOND
     1     2     1   ar
     2     6     5    1
     3    10     9    1
     4    15    14    1
     5    16    15    1
     6    16     1   ar
     7    17     2   ar
     8    17     3    1
     9    18    16   ar
    10    18    17   ar
    11    19     3   ar
    12    19     4   ar
    13    20     4   ar
    14    20     5    1
    15    21     7   ar
    16    21     6   ar
    17    22     7   ar
    18    22     8   ar
    19    23     8    1
    20    24    11    1
    21    24     9    1
    22    24    23    1
    23    25    10    1
    24    26    25    1
    25    26    11    1
    26    27    12   ar
    27    27     8   ar
    28    28    13   ar
    29    28     7   ar
    30    28    12   ar
    31    29    13   ar
    32    29     6   ar
    33    30    20   ar
    34    31    30    1
    35    32    30   ar
    36    32     3   ar
