@<TRIPOS>MOLECULE
8ERD_WQ6_A301
 29 32 0 0 0
SMALL
GASTEIGER

@<TRIPOS>ATOM
      1 C           3.0110  -19.9310  -18.8700 C.3     1  UNL1        0.0232
      2 C           4.2560  -19.0380  -19.1000 C.3     1  UNL1        0.0937
      3 C           9.5620  -20.8190  -21.7560 C.ar    1  UNL1        0.0032
      4 C           6.3340  -19.4220  -20.3330 C.2     1  UNL1        0.2490
      5 C           7.3240  -20.2130  -21.1060 C.ar    1  UNL1        0.0551
      6 C           8.7220  -20.0550  -21.0000 C.ar    1  UNL1        0.0047
      7 C           9.0320  -21.7800  -22.6410 C.ar    1  UNL1        0.0370
      8 C           9.8770  -22.5950  -23.4280 C.ar    1  UNL1        0.1033
      9 C           3.6190  -21.3200  -18.6310 C.3     1  UNL1        0.0216
     10 C           5.9200  -22.0000  -19.0130 C.3     1  UNL1        0.0215
     11 C           8.0230  -23.6360  -24.3420 C.ar    1  UNL1        0.2365
     12 C           7.6340  -21.9500  -22.7820 C.ar    1  UNL1        0.0859
     13 C           6.7830  -21.1550  -21.9950 C.ar    1  UNL1        0.0238
     14 C           4.7400  -21.3350  -19.6820 C.3     1  UNL1        0.0757
     15 C           6.1730  -25.1080  -25.1440 C.3     1  UNL1        0.0984
     16 C           5.9840  -25.9290  -26.4260 C.3     1  UNL1        0.0408
     17 C           4.5590  -26.4810  -26.4980 C.3     1  UNL1        0.0972
     18 C           4.5750  -26.6320  -23.9700 C.3     1  UNL1        0.0972
     19 C           5.9860  -26.0580  -23.9590 C.3     1  UNL1        0.0408
     20 C           1.6130  -27.5990  -24.9740 C.3     1  UNL1        0.1960
     21 N           9.3420  -23.4880  -24.2550 N.ar    1  UNL1       -0.2109
     22 N           7.1700  -22.9030  -23.6420 N.ar    1  UNL1       -0.2124
     23 N           7.5450  -24.6050  -25.1920 N.pl3   1  UNL1       -0.2055
     24 N           4.2100  -27.2200  -25.2680 N.3     1  UNL1       -0.1593
     25 N           5.2080  -19.9400  -19.8010 N.am    1  UNL1       -0.2777
     26 O           3.1130  -28.9810  -26.6650 O.2     1  UNL1       -0.1572
     27 O           3.3680  -29.3470  -24.2020 O.2     1  UNL1       -0.1572
     28 O           6.5010  -18.2130  -20.2410 O.2     1  UNL1       -0.2699
     29 S           3.1390  -28.4420  -25.3130 S.O2    1  UNL1        0.0457
@<TRIPOS>BOND
     1     2     1    1
     2     5     4    1
     3     6     5   ar
     4     6     3   ar
     5     7     3   ar
     6     8     7   ar
     7     9     1    1
     8    12     7   ar
     9    13    12   ar
    10    13     5   ar
    11    14     9    1
    12    14    10    1
    13    16    15    1
    14    17    16    1
    15    19    18    1
    16    19    15    1
    17    21    11   ar
    18    21     8   ar
    19    22    12   ar
    20    22    11   ar
    21    15    23    1
    22    23    11    1
    23    24    18    1
    24    24    17    1
    25    25    14    1
    26    25     2    1
    27    25     4   am
    28    28     4    2
    29    29    27    2
    30    29    26    2
    31    29    20    1
    32    29    24    1
