@<TRIPOS>MOLECULE
8FP0_RRC_A303
 52 54 0 0 0
SMALL
GASTEIGER

@<TRIPOS>ATOM
      1  OAP        5.0230  -22.0710  -18.9080 O.3   303  RRC303     -0.3932
      2  CAQ        3.8610  -21.9510  -19.6840 C.3   303  RRC303      0.0626
      3  CAR        3.8830  -23.0910  -20.7050 C.3   303  RRC303      0.0461
      4  CAK        2.5130  -23.7600  -20.8250 C.3   303  RRC303     -0.0352
      5  CAI        2.4810  -24.7300  -22.0070 C.3   303  RRC303     -0.0635
      6  NAS        4.2660  -22.5150  -21.9890 N.pl3 303  RRC303     -0.3083
      7  CAT        5.5980  -22.6890  -22.5770 C.ar  303  RRC303      0.2191
      8  NAU        6.6190  -21.8480  -22.3400 N.ar  303  RRC303     -0.1947
      9  CAV        7.8520  -22.0430  -22.9410 C.ar  303  RRC303      0.1674
     10  NAW        9.0700  -21.3980  -22.9230 N.ar  303  RRC303     -0.3123
     11  CAZ        9.4270  -20.1960  -22.1680 C.3   303  RRC303      0.0317
     12  CAY        8.4300  -19.0700  -22.4030 C.3   303  RRC303     -0.0444
     13  CBA        9.5210  -20.5590  -20.6830 C.3   303  RRC303     -0.0444
     14  CAX        9.9190  -22.0720  -23.6980 C.ar  303  RRC303      0.0985
     15  CAN        8.0150  -23.1190  -23.7910 C.ar  303  RRC303      0.1476
     16  NAO        9.3050  -23.1220  -24.2470 N.ar  303  RRC303     -0.2306
     17  NAL        5.7520  -23.7330  -23.3900 N.ar  303  RRC303     -0.1974
     18  CAM        6.9060  -23.9830  -23.9950 C.ar  303  RRC303      0.1519
     19  NAJ        7.0200  -25.1350  -24.8510 N.pl3 303  RRC303     -0.3231
     20  CAD        5.9850  -26.1480  -24.8050 C.3   303  RRC303      0.0357
     21  CAE        5.0130  -25.9550  -25.9650 C.ar  303  RRC303     -0.0304
     22  CAG        3.6830  -25.6790  -25.7190 C.ar  303  RRC303     -0.0571
     23  CAH        2.8140  -25.5010  -26.7810 C.ar  303  RRC303     -0.0615
     24  CAF        3.2700  -25.6030  -28.0880 C.ar  303  RRC303     -0.0617
     25  CAC        4.6030  -25.8730  -28.3340 C.ar  303  RRC303     -0.0615
     26  CAB        5.4730  -26.0510  -27.2710 C.ar  303  RRC303     -0.0571
     27  HAP        4.9880  -21.4650  -18.1850 H     303  RRC303      0.2095
     28 HAQ1        3.8530  -20.9960  -20.1940 H     303  RRC303      0.0575
     29 HAQ2        2.9840  -22.0360  -19.0540 H     303  RRC303      0.0575
     30  HAR        4.5870  -23.8540  -20.3880 H     303  RRC303      0.0521
     31 HAK1        1.7560  -22.9990  -20.9670 H     303  RRC303      0.0281
     32 HAK2        2.3000  -24.3020  -19.9120 H     303  RRC303      0.0281
     33 HAI1        1.8460  -25.5750  -21.7640 H     303  RRC303      0.0230
     34 HAI2        2.0880  -24.2220  -22.8820 H     303  RRC303      0.0230
     35 HAI3        3.4870  -25.0810  -22.2140 H     303  RRC303      0.0230
     36  HAS        3.5880  -21.9770  -22.4920 H     303  RRC303      0.1493
     37  HAZ       10.3870  -19.8540  -22.5320 H     303  RRC303      0.0523
     38 HAY1        8.5270  -18.7070  -23.4220 H     303  RRC303      0.0249
     39 HAY2        7.4210  -19.4420  -22.2460 H     303  RRC303      0.0249
     40 HAY3        8.6280  -18.2600  -21.7090 H     303  RRC303      0.0249
     41 HBA1       10.4340  -21.1200  -20.5040 H     303  RRC303      0.0249
     42 HBA2        8.6620  -21.1630  -20.4020 H     303  RRC303      0.0249
     43 HBA3        9.5320  -19.6490  -20.0880 H     303  RRC303      0.0249
     44  HAX       10.9570  -21.8050  -23.8610 H     303  RRC303      0.1029
     45  HAJ        7.8010  -25.2360  -25.4670 H     303  RRC303      0.1479
     46 HAD1        6.4400  -27.1300  -24.8760 H     303  RRC303      0.0511
     47 HAD2        5.4470  -26.0700  -23.8670 H     303  RRC303      0.0511
     48  HAG        3.3210  -25.6010  -24.7010 H     303  RRC303      0.0621
     49  HAH        1.7710  -25.2800  -26.5910 H     303  RRC303      0.0618
     50  HAF        2.5820  -25.4720  -28.9140 H     303  RRC303      0.0618
     51  HAC        4.9650  -25.9460  -29.3530 H     303  RRC303      0.0618
     52  HAB        6.5180  -26.2650  -27.4590 H     303  RRC303      0.0621
@<TRIPOS>BOND
     1    51    25    1
     2    50    24    1
     3    25    24   ar
     4    25    26   ar
     5    24    23   ar
     6    52    26    1
     7    26    21   ar
     8    23    49    1
     9    23    22   ar
    10    21    22   ar
    11    21    20    1
    12    22    48    1
    13    45    19    1
    14    46    20    1
    15    19    20    1
    16    19    18    1
    17    20    47    1
    18    16    15   ar
    19    16    14   ar
    20    18    15   ar
    21    18    17   ar
    22    44    14    1
    23    15     9   ar
    24    14    10   ar
    25    38    12    1
    26    17     7   ar
    27     9    10   ar
    28     9     8   ar
    29    10    11    1
    30    34     5    1
    31     7     8   ar
    32     7     6    1
    33    37    11    1
    34    36     6    1
    35    12    39    1
    36    12    11    1
    37    12    40    1
    38    35     5    1
    39    11    13    1
    40     5    33    1
    41     5     4    1
    42     6     3    1
    43    31     4    1
    44     4     3    1
    45     4    32    1
    46     3    30    1
    47     3     2    1
    48    13    41    1
    49    13    42    1
    50    13    43    1
    51    28     2    1
    52     2    29    1
    53     2     1    1
    54     1    27    1
