@<TRIPOS>MOLECULE
8FP0_RRC_A303
 52 54 0 0 0
SMALL
GASTEIGER

@<TRIPOS>ATOM
      1  OAP        4.9550  -21.7230  -19.0660 O.3   303  RRC303     -0.3932
      2  CAQ        3.8190  -21.6210  -19.8820 C.3   303  RRC303      0.0626
      3  CAR        3.8550  -22.8050  -20.8510 C.3   303  RRC303      0.0461
      4  CAK        2.4790  -23.4590  -20.9850 C.3   303  RRC303     -0.0352
      5  CAI        2.4680  -24.4800  -22.1240 C.3   303  RRC303     -0.0635
      6  NAS        4.2860  -22.2920  -22.1460 N.pl3 303  RRC303     -0.3083
      7  CAT        5.6320  -22.5100  -22.6850 C.ar  303  RRC303      0.2191
      8  NAU        6.6590  -21.6740  -22.4530 N.ar  303  RRC303     -0.1947
      9  CAV        7.9070  -21.9140  -23.0060 C.ar  303  RRC303      0.1674
     10  NAW        9.1330  -21.2850  -22.9780 N.ar  303  RRC303     -0.3123
     11  CAZ        9.4850  -20.0570  -22.2660 C.3   303  RRC303      0.0317
     12  CAY        8.5130  -18.9280  -22.5810 C.3   303  RRC303     -0.0444
     13  CBA        9.5280  -20.3540  -20.7640 C.3   303  RRC303     -0.0444
     14  CAX        9.9950  -22.0050  -23.6960 C.ar  303  RRC303      0.0985
     15  CAN        8.0780  -23.0280  -23.8030 C.ar  303  RRC303      0.1476
     16  NAO        9.3820  -23.0690  -24.2170 N.ar  303  RRC303     -0.2306
     17  NAL        5.7950  -23.5920  -23.4460 N.ar  303  RRC303     -0.1974
     18  CAM        6.9630  -23.8840  -24.0030 C.ar  303  RRC303      0.1519
     19  NAJ        7.0850  -25.0750  -24.8040 N.pl3 303  RRC303     -0.3231
     20  CAD        6.0340  -26.0700  -24.7460 C.3   303  RRC303      0.0357
     21  CAE        5.1010  -25.9140  -25.9430 C.ar  303  RRC303     -0.0304
     22  CAG        3.7680  -25.6090  -25.7510 C.ar  303  RRC303     -0.0571
     23  CAH        2.9350  -25.4660  -26.8460 C.ar  303  RRC303     -0.0615
     24  CAF        3.4290  -25.6320  -28.1330 C.ar  303  RRC303     -0.0617
     25  CAC        4.7650  -25.9310  -28.3260 C.ar  303  RRC303     -0.0615
     26  CAB        5.5990  -26.0740  -27.2280 C.ar  303  RRC303     -0.0571
     27  HAP        4.9080  -21.0860  -18.3720 H     303  RRC303      0.2095
     28 HAQ1        3.8420  -20.6890  -20.4340 H     303  RRC303      0.0575
     29 HAQ2        2.9220  -21.6650  -19.2770 H     303  RRC303      0.0575
     30  HAR        4.5370  -23.5630  -20.4800 H     303  RRC303      0.0521
     31 HAK1        1.7390  -22.6950  -21.1840 H     303  RRC303      0.0281
     32 HAK2        2.2290  -23.9570  -20.0560 H     303  RRC303      0.0281
     33 HAI1        1.8130  -25.3040  -21.8640 H     303  RRC303      0.0230
     34 HAI2        2.1100  -24.0060  -23.0310 H     303  RRC303      0.0230
     35 HAI3        3.4750  -24.8540  -22.2840 H     303  RRC303      0.0230
     36  HAS        3.6320  -21.7670  -22.6930 H     303  RRC303      0.1493
     37  HAZ       10.4610  -19.7450  -22.6140 H     303  RRC303      0.0523
     38 HAY1        8.6470  -18.6120  -23.6110 H     303  RRC303      0.0249
     39 HAY2        7.4950  -19.2780  -22.4390 H     303  RRC303      0.0249
     40 HAY3        8.7030  -18.0910  -21.9170 H     303  RRC303      0.0249
     41 HBA1       10.4270  -20.9210  -20.5320 H     303  RRC303      0.0249
     42 HBA2        8.6520  -20.9340  -20.4840 H     303  RRC303      0.0249
     43 HBA3        9.5350  -19.4190  -20.2090 H     303  RRC303      0.0249
     44  HAX       11.0420  -21.7600  -23.8380 H     303  RRC303      0.1029
     45  HAJ        7.8830  -25.2130  -25.3910 H     303  RRC303      0.1479
     46 HAD1        6.4750  -27.0600  -24.7600 H     303  RRC303      0.0511
     47 HAD2        5.4690  -25.9430  -23.8300 H     303  RRC303      0.0511
     48  HAG        3.3760  -25.4810  -24.7490 H     303  RRC303      0.0621
     49  HAH        1.8900  -25.2220  -26.6990 H     303  RRC303      0.0618
     50  HAF        2.7680  -25.5270  -28.9850 H     303  RRC303      0.0618
     51  HAC        5.1570  -26.0540  -29.3280 H     303  RRC303      0.0618
     52  HAB        6.6460  -26.3110  -27.3740 H     303  RRC303      0.0621
@<TRIPOS>BOND
     1    51    25    1
     2    50    24    1
     3    25    24   ar
     4    25    26   ar
     5    24    23   ar
     6    52    26    1
     7    26    21   ar
     8    23    49    1
     9    23    22   ar
    10    21    22   ar
    11    21    20    1
    12    22    48    1
    13    45    19    1
    14    19    20    1
    15    19    18    1
    16    46    20    1
    17    20    47    1
    18    16    15   ar
    19    16    14   ar
    20    18    15   ar
    21    18    17   ar
    22    44    14    1
    23    15     9   ar
    24    14    10   ar
    25    38    12    1
    26    17     7   ar
    27    34     5    1
    28     9    10   ar
    29     9     8   ar
    30    10    11    1
    31    36     6    1
    32     7     8   ar
    33     7     6    1
    34    37    11    1
    35    12    39    1
    36    12    11    1
    37    12    40    1
    38    35     5    1
    39    11    13    1
    40     6     3    1
    41     5    33    1
    42     5     4    1
    43    31     4    1
    44     4     3    1
    45     4    32    1
    46     3    30    1
    47     3     2    1
    48    13    41    1
    49    13    42    1
    50    13    43    1
    51    28     2    1
    52     2    29    1
    53     2     1    1
    54     1    27    1
