3CD0_6HI_D3
     RDKit          3D

 37 39  0  0  0  0  0  0  0  0999 V2000
   19.1400    9.5060   15.3770 N   0  0  0  0  0  0  0  0  0  0  0  0
   18.1550    9.7880   10.8610 C   0  0  0  0  0  0  0  0  0  0  0  0
   17.8820    9.1290   15.2210 C   0  0  0  0  0  0  0  0  0  0  0  0
   19.1890    9.1100   11.7530 C   0  0  0  0  0  0  0  0  0  0  0  0
   16.2890    8.4460   13.1890 C   0  0  0  0  0  0  0  0  0  0  0  0
   16.3260    6.9330   13.0500 C   0  0  0  0  0  0  0  0  0  0  0  0
   15.0480    4.8200   12.6370 C   0  0  0  0  0  0  0  0  0  0  0  0
   19.4660    7.6630   11.3490 C   0  0  0  0  0  0  0  0  0  0  0  0
   14.8970    9.7810   17.4240 C   0  0  0  0  0  0  0  0  0  0  0  0
   23.0800   12.7420   13.2730 C   0  0  0  0  0  0  0  0  0  0  0  0
   23.7640   13.5330   12.3520 C   0  0  0  0  0  0  0  0  0  0  0  0
   16.8090    7.7980   17.0030 C   0  0  0  0  0  0  0  0  0  0  0  0
   15.8350    7.6250   17.9730 C   0  0  0  0  0  0  0  0  0  0  0  0
   25.1390   11.6410   13.8730 C   0  0  0  0  0  0  0  0  0  0  0  0
   25.7930   14.1360   11.3090 F   0  0  0  0  0  0  0  0  0  0  0  0
   25.1380   13.3780   12.1990 C   0  0  0  0  0  0  0  0  0  0  0  0
   25.8290   12.4340   12.9540 C   0  0  0  0  0  0  0  0  0  0  0  0
   23.7660   11.7950   14.0370 C   0  0  0  0  0  0  0  0  0  0  0  0
   23.0360   10.9370   15.0450 C   0  0  0  0  0  0  0  0  0  0  0  0
   21.6230   10.8590   14.6990 N   0  0  0  0  0  0  0  0  0  0  0  0
   21.1250    9.8880   13.9380 C   0  0  0  0  0  0  0  0  0  0  0  0
   21.8520    9.0070   13.5010 O   0  0  0  0  0  0  0  0  0  0  0  0
   19.6940    9.5270   14.1490 C   0  0  0  0  0  0  0  0  0  0  0  0
   18.8040    9.1700   13.1940 N   0  0  0  0  0  0  0  0  0  0  0  0
   17.6120    8.8990   13.7850 C   0  0  0  0  0  0  0  0  0  0  0  0
   16.8210    8.9500   16.2350 C   0  0  0  0  0  0  0  0  0  0  0  0
   14.8870    8.6170   18.1850 C   0  0  0  0  0  0  0  0  0  0  0  0
   13.9480    8.4320   19.1180 F   0  0  0  0  0  0  0  0  0  0  0  0
   15.8740    9.9520   16.4470 C   0  0  0  0  0  0  0  0  0  0  0  0
   15.0190    6.3420   12.5080 C   0  0  0  0  0  0  0  0  0  0  0  0
   14.8780    6.6590   11.1330 O   0  0  0  0  0  0  0  0  0  0  0  0
   14.8600    4.3440   14.0760 C   0  0  0  0  0  0  0  0  0  0  0  0
   13.5430    4.6130   14.5230 O   0  0  0  0  0  0  0  0  0  0  0  0
   15.1160    2.8530   14.1330 C   0  0  0  0  0  0  0  0  0  0  0  0
   15.1120    2.3550   15.5500 C   0  0  0  0  0  0  0  0  0  0  0  0
   14.0860    1.8950   16.0330 O   0  0  0  0  0  0  0  0  0  0  0  0
   16.2400    2.3890   16.2570 O   0  0  0  0  0  0  0  0  0  0  0  0
  3  1  1  0
  4  2  1  0
  6  5  1  0
  8  4  1  0
 11 10  2  0
 13 12  2  0
 16 15  1  0
 16 11  1  0
 17 16  2  0
 17 14  1  0
 18 14  2  0
 18 10  1  0
 19 18  1  0
 20 19  1  0
 21 20  1  0
 22 21  2  0
 23 21  1  0
 23  1  2  0
 24 23  1  0
 24  4  1  0
 25  5  1  0
 25 24  1  0
 25  3  2  0
 26  3  1  0
 26 12  1  0
 27 13  1  0
 27  9  2  0
 28 27  1  0
 29  9  1  0
 29 26  2  0
 30  7  1  0
 30  6  1  0
 30 31  1  0
 32  7  1  0
 32 33  1  0
 34 32  1  0
 35 34  1  0
 36 35  2  0
 37 35  1  0
M  END
>  <_TriposChargeType>  (1) 
GASTEIGER

$$$$
