3CCZ_5HI_B876
     RDKit          3D

 38 40  0  0  0  0  0  0  0  0999 V2000
   17.6440    8.9920   13.9460 N   0  0  0  0  0  0  0  0  0  0  0  0
   19.0250    9.4120   15.5930 N   0  0  0  0  0  0  0  0  0  0  0  0
   17.7480    9.1430   15.2790 C   0  0  0  0  0  0  0  0  0  0  0  0
   19.1050    9.0620   11.9130 C   0  0  0  0  0  0  0  0  0  0  0  0
   16.3820    8.6730   13.2520 C   0  0  0  0  0  0  0  0  0  0  0  0
   16.0720    7.1950   13.5050 C   0  0  0  0  0  0  0  0  0  0  0  0
   15.2010    5.0010   12.6500 C   0  0  0  0  0  0  0  0  0  0  0  0
   20.4850    9.5220   11.4590 C   0  0  0  0  0  0  0  0  0  0  0  0
   14.7680    9.9570   17.4630 C   0  0  0  0  0  0  0  0  0  0  0  0
   25.0210   11.7010   13.6980 C   0  0  0  0  0  0  0  0  0  0  0  0
   25.6010   12.4390   12.6700 C   0  0  0  0  0  0  0  0  0  0  0  0
   16.5730    7.8770   17.0670 C   0  0  0  0  0  0  0  0  0  0  0  0
   15.5750    7.7550   18.0290 C   0  0  0  0  0  0  0  0  0  0  0  0
   22.9250   12.8420   13.3570 C   0  0  0  0  0  0  0  0  0  0  0  0
   21.9510    8.8910   13.8820 O   0  0  0  0  0  0  0  0  0  0  0  0
   21.2150    9.6950   14.4310 C   0  0  0  0  0  0  0  0  0  0  0  0
   21.6950   10.7670   15.0710 N   0  0  0  0  0  0  0  0  0  0  0  0
   23.1260   11.0810   15.1580 C   0  0  0  0  0  0  0  0  0  0  0  0
   23.2860   11.8550   16.4680 C   0  0  0  0  0  0  0  0  0  0  0  0
   22.5300   13.0570   16.4530 O   0  0  0  0  0  0  0  0  0  0  0  0
   23.6830   11.8930   14.0440 C   0  0  0  0  0  0  0  0  0  0  0  0
   23.5080   13.5810   12.3270 C   0  0  0  0  0  0  0  0  0  0  0  0
   24.8410   13.3800   11.9820 C   0  0  0  0  0  0  0  0  0  0  0  0
   19.7390    9.4420   14.4580 C   0  0  0  0  0  0  0  0  0  0  0  0
   18.8660    9.1580   13.3890 C   0  0  0  0  0  0  0  0  0  0  0  0
   18.8500    7.6300   11.4310 C   0  0  0  0  0  0  0  0  0  0  0  0
   16.6670    9.0360   16.2990 C   0  0  0  0  0  0  0  0  0  0  0  0
   14.6730    8.7970   18.2300 C   0  0  0  0  0  0  0  0  0  0  0  0
   13.7110    8.6770   19.1610 F   0  0  0  0  0  0  0  0  0  0  0  0
   15.7670   10.0780   16.4990 C   0  0  0  0  0  0  0  0  0  0  0  0
   15.0860    6.5240   12.5410 C   0  0  0  0  0  0  0  0  0  0  0  0
   15.3340    6.8760   11.1890 O   0  0  0  0  0  0  0  0  0  0  0  0
   14.9320    4.4790   14.0610 C   0  0  0  0  0  0  0  0  0  0  0  0
   13.6400    4.8850   14.4760 O   0  0  0  0  0  0  0  0  0  0  0  0
   15.0200    2.9560   14.0850 C   0  0  0  0  0  0  0  0  0  0  0  0
   15.1510    2.4560   15.5070 C   0  0  0  0  0  0  0  0  0  0  0  0
   14.2080    1.8000   15.9950 O   0  0  0  0  0  0  0  0  0  0  0  0
   16.1940    2.7090   16.1480 O   0  0  0  0  0  0  0  0  0  0  0  0
  3  2  2  0
  3  1  1  0
  5  1  1  0
  6  5  1  0
  4  8  1  0
 11 10  2  0
 13 12  2  0
 16 15  2  0
 17 16  1  0
 18 17  1  0
 18 19  1  0
 20 19  1  0
 21 18  1  0
 21 14  2  0
 21 10  1  0
 22 14  1  0
 23 22  2  0
 23 11  1  0
 24 16  1  0
 24  2  1  0
 25 24  2  0
 25  4  1  0
 25  1  1  0
 26  4  1  0
 27  3  1  0
 27 12  1  0
 28 13  1  0
 28  9  2  0
 29 28  1  0
 30  9  1  0
 30 27  2  0
 31  7  1  0
 31  6  1  0
 31 32  1  0
 33  7  1  0
 33 34  1  0
 35 33  1  0
 36 35  1  0
 37 36  2  0
 38 36  1  0
M  CHG  1  38  -1
M  END
>  <_TriposChargeType>  (1) 
GASTEIGER

$$$$
