3CCT_3HI_D3
     RDKit          3D

 42 45  0  0  0  0  0  0  0  0999 V2000
   17.4710    8.7140   13.9800 N   0  0  0  0  0  0  0  0  0  0  0  0
   17.5190    8.8750   15.3010 C   0  0  0  0  0  0  0  0  0  0  0  0
   18.8700    8.9570   11.9450 C   0  0  0  0  0  0  0  0  0  0  0  0
   16.2820    8.2600   13.2690 C   0  0  0  0  0  0  0  0  0  0  0  0
   16.4170    6.7750   12.9970 C   0  0  0  0  0  0  0  0  0  0  0  0
   15.1070    4.7120   12.6760 C   0  0  0  0  0  0  0  0  0  0  0  0
   19.9850    7.9650   11.6150 C   0  0  0  0  0  0  0  0  0  0  0  0
   14.7270    9.2560   17.8470 C   0  0  0  0  0  0  0  0  0  0  0  0
   23.8460   10.8940   14.3100 C   0  0  0  0  0  0  0  0  0  0  0  0
   25.1070   11.4000   13.9760 C   0  0  0  0  0  0  0  0  0  0  0  0
   16.1970    7.2620   16.6010 C   0  0  0  0  0  0  0  0  0  0  0  0
   19.7560    9.1980   19.3470 C   0  0  0  0  0  0  0  0  0  0  0  0
   15.2140    6.9090   17.5160 C   0  0  0  0  0  0  0  0  0  0  0  0
   22.8470   12.8860   13.4080 C   0  0  0  0  0  0  0  0  0  0  0  0
   20.2720   10.4790   19.5670 C   0  0  0  0  0  0  0  0  0  0  0  0
   16.1750    2.5880   16.3130 O   0  0  0  0  0  0  0  0  0  0  0  0
   15.1300    2.3240   15.6550 C   0  0  0  0  0  0  0  0  0  0  0  0
   14.1390    1.7260   16.1550 O   0  0  0  0  0  0  0  0  0  0  0  0
   15.0480    2.7650   14.2160 C   0  0  0  0  0  0  0  0  0  0  0  0
   14.8370    4.2690   14.1080 C   0  0  0  0  0  0  0  0  0  0  0  0
   13.4990    4.6270   14.4400 O   0  0  0  0  0  0  0  0  0  0  0  0
   15.0750    6.2380   12.5530 C   0  0  0  0  0  0  0  0  0  0  0  0
   14.8650    6.6580   11.2180 O   0  0  0  0  0  0  0  0  0  0  0  0
   16.4650    8.6070   16.3160 C   0  0  0  0  0  0  0  0  0  0  0  0
   14.4820    7.9140   18.1370 C   0  0  0  0  0  0  0  0  0  0  0  0
   13.5240    7.5840   19.0140 F   0  0  0  0  0  0  0  0  0  0  0  0
   15.7170    9.6030   16.9280 C   0  0  0  0  0  0  0  0  0  0  0  0
   18.6530    9.0490   13.4140 C   0  0  0  0  0  0  0  0  0  0  0  0
   19.1030   10.3400   11.3770 C   0  0  0  0  0  0  0  0  0  0  0  0
   19.5490    9.4750   14.4140 C   0  0  0  0  0  0  0  0  0  0  0  0
   18.8830    9.3420   15.6310 C   0  0  0  0  0  0  0  0  0  0  0  0
   19.3780    9.6990   17.0050 C   0  0  0  0  0  0  0  0  0  0  0  0
   19.3120    8.8080   18.0750 C   0  0  0  0  0  0  0  0  0  0  0  0
   20.3300   11.3810   18.5030 C   0  0  0  0  0  0  0  0  0  0  0  0
   19.8770   10.9950   17.2370 C   0  0  0  0  0  0  0  0  0  0  0  0
   20.9760    9.8840   14.1760 C   0  0  0  0  0  0  0  0  0  0  0  0
   21.7480    8.9650   13.9160 O   0  0  0  0  0  0  0  0  0  0  0  0
   21.3940   11.1560   14.3440 N   0  0  0  0  0  0  0  0  0  0  0  0
   22.6930   11.6350   14.0190 C   0  0  0  0  0  0  0  0  0  0  0  0
   21.7860   13.6290   13.1270 O   0  0  0  0  0  0  0  0  0  0  0  0
   24.1010   13.3950   13.0700 C   0  0  0  0  0  0  0  0  0  0  0  0
   25.2430   12.6460   13.3560 C   0  0  0  0  0  0  0  0  0  0  0  0
  2  1  1  0
  4  1  1  0
  5  4  1  0
  3  7  1  0
 10  9  2  0
 13 11  2  0
 15 12  2  0
 17 16  2  0
 18 17  1  0
 19 17  1  0
 20 19  1  0
 20  6  1  0
 20 21  1  0
 22  6  1  0
 22  5  1  0
 22 23  1  0
 24 11  1  0
 24  2  1  0
 25 13  1  0
 25  8  2  0
 26 25  1  0
 27  8  1  0
 27 24  2  0
 28  3  1  0
 28  1  1  0
 29  3  1  0
 30 28  2  0
 31 30  1  0
 31  2  2  0
 32 31  1  0
 33 32  2  0
 33 12  1  0
 34 15  1  0
 35 32  1  0
 35 34  2  0
 36 30  1  0
 37 36  2  0
 38 36  1  0
 39 38  1  0
 39  9  1  0
 39 14  2  0
 40 14  1  0
 41 14  1  0
 42 41  2  0
 42 10  1  0
M  CHG  1  18  -1
M  END
>  <_TriposChargeType>  (1) 
GASTEIGER

$$$$
