@<TRIPOS>MOLECULE
2POG_WST_A201
 21 24 0 0 0
SMALL
GASTEIGER

@<TRIPOS>ATOM
      1 C          25.0970  -12.8150    8.6840 C.ar    1  UNL1        0.0504
      2 C          25.7810  -13.3460    9.8540 C.ar    1  UNL1        0.1946
      3 O          26.8430  -12.8350   10.3640 O.3     1  UNL1       -0.2868
      4 C          25.1870  -14.5230   10.4310 C.ar    1  UNL1        0.0419
      5 C          24.0090  -15.1450    9.9210 C.ar    1  UNL1        0.0064
      6 C          23.3660  -14.6050    8.7890 C.ar    1  UNL1        0.0368
      7 C          23.9020  -13.4520    8.1770 C.ar    1  UNL1        0.1379
      8 O          23.2120  -12.9880    7.0800 O.3     1  UNL1       -0.4750
      9 C          24.0330  -12.3850    6.0400 C.3     1  UNL1        0.1883
     10 C          24.9370  -11.2280    6.6000 C.3     1  UNL1        0.0487
     11 C          25.6210  -11.5620    7.9600 C.3     1  UNL1        0.0323
     12 C          25.4850  -10.2770    8.8100 C.3     1  UNL1        0.0047
     13 C          25.1530   -9.1770    7.8240 C.3     1  UNL1        0.0005
     14 C          24.2430   -9.8740    6.8350 C.3     1  UNL1        0.0043
     15 C          23.1600  -11.9530    4.8560 C.ar    1  UNL1        0.0174
     16 C          21.7370  -11.9650    4.9960 C.ar    1  UNL1        0.0025
     17 C          20.8970  -11.5670    3.9300 C.ar    1  UNL1        0.0418
     18 C          21.4020  -11.1340    2.6600 C.ar    1  UNL1        0.1957
     19 O          20.6370  -10.7770    1.7130 O.3     1  UNL1       -0.2866
     20 C          22.8340  -11.1330    2.5460 C.ar    1  UNL1        0.0418
     21 C          23.7040  -11.5270    3.6060 C.ar    1  UNL1        0.0025
@<TRIPOS>BOND
     1     2     1   ar
     2     3     2    1
     3     4     2   ar
     4     5     4   ar
     5     6     5   ar
     6     7     6   ar
     7     7     1   ar
     8     8     7    1
     9     9     8    1
    10    10     9    1
    11    11    10    1
    12    11     1    1
    13    11    12    1
    14    13    12    1
    15    10    14    1
    16    14    13    1
    17     9    15    1
    18    16    15   ar
    19    17    16   ar
    20    18    17   ar
    21    19    18    1
    22    20    18   ar
    23    21    20   ar
    24    21    15   ar
