@<TRIPOS>MOLECULE
8DU8_TS7_B601
 35 41 0 0 0
SMALL
GASTEIGER

@<TRIPOS>ATOM
      1  N1        24.1190  -13.3260    7.0670 N.am  601  TS7601     -0.2730
      2  C4        21.3030  -12.0500    4.1020 C.ar  601  TS7601      0.0376
      3  C5        22.3320  -12.4110    5.1350 C.ar  601  TS7601     -0.0195
      4  C6        23.6530  -12.3050    4.9660 C.ar  601  TS7601     -0.0038
      5  C7        21.7220  -12.9800    6.4320 C.3   601  TS7601      0.0444
      6  C8        22.7460  -12.9670    7.4710 C.3   601  TS7601      0.0652
      7  C10       24.9520  -14.3290    7.6400 C.2   601  TS7601      0.2494
      8  C13       24.6250  -10.1680    6.5680 C.ar  601  TS7601      0.0008
      9  C15       26.5140   -8.8640    7.2990 C.ar  601  TS7601      0.1351
     10  C17       26.8870  -11.2660    6.6750 C.ar  601  TS7601      0.0008
     11  C20       28.3640   -7.3430    7.3010 C.3   601  TS7601      0.0656
     12  C21       28.1470   -6.8860    6.0000 C.3   601  TS7601     -0.0490
     13  C22       28.7400   -6.1110    7.8950 C.3   601  TS7601     -0.0490
     14  C24       28.1440   -3.5140    7.1610 C.3   601  TS7601     -0.0221
     15  C26       23.4270  -16.0710    8.1000 C.ar  601  TS7601      0.0045
     16  C28       23.3290  -17.4060   10.0280 C.ar  601  TS7601      0.0000
     17  C1        24.1730  -11.7480    3.6400 C.ar  601  TS7601      0.0006
     18  C11       24.4310  -15.3580    8.6310 C.ar  601  TS7601      0.0536
     19  C12       25.4210  -11.2680    6.4060 C.ar  601  TS7601      0.0001
     20  C14       25.2470   -8.9260    7.0790 C.ar  601  TS7601      0.0365
     21  C16       27.3980  -10.0810    7.1050 C.ar  601  TS7601      0.0365
     22  C18       22.2270  -13.1480    8.9370 C.3   601  TS7601      0.0203
     23  C19       22.6500  -11.7590    8.4760 C.3   601  TS7601      0.0203
     24  C2        23.2740  -11.4130    2.6970 C.ar  601  TS7601      0.0417
     25  C23       27.8720   -4.8770    6.4430 C.3   601  TS7601     -0.0680
     26  C25       29.6010   -2.9900    7.1370 C.3   601  TS7601     -0.0022
     27  C27       22.7830  -17.2330    8.8400 C.ar  601  TS7601      0.0001
     28  C29       24.4290  -16.5690   10.6380 C.ar  601  TS7601      0.0001
     29  C3        21.7900  -11.5250    2.9070 C.ar  601  TS7601      0.1954
     30  C30       25.0250  -15.5350    9.9740 C.ar  601  TS7601      0.0045
     31  C9        24.7420  -12.5400    5.9390 C.3   601  TS7601      0.1203
     32  N2        28.6570   -5.6720    6.5570 N.4   601  TS7601      0.4136
     33  O1        26.0710  -14.4300    7.2060 O.2   601  TS7601     -0.2699
     34  O2        20.9030  -11.1160    1.9550 O.3   601  TS7601     -0.2866
     35  O3        27.0260   -7.6250    7.7940 O.3   601  TS7601     -0.5041
@<TRIPOS>BOND
     1    34    29    1
     2    24    29   ar
     3    24    17   ar
     4    29     2   ar
     5    17     4   ar
     6     2     3   ar
     7     4     3   ar
     8     4    31    1
     9     3     5    1
    10    31    19    1
    11    31     1    1
    12    12    32    1
    13    12    11    1
    14    19     8   ar
    15    19    10   ar
    16     5     6    1
    17    25    32    1
    18    25    14    1
    19    32    11    1
    20    32    13    1
    21     8    20   ar
    22    10    21   ar
    23     1     6    1
    24     1     7   am
    25    20     9   ar
    26    21     9   ar
    27    26    14    1
    28    33     7    2
    29     9    35    1
    30    11    35    1
    31    11    13    1
    32     6    23    1
    33     6    22    1
    34     7    18    1
    35    15    18   ar
    36    15    27   ar
    37    23    22    1
    38    18    30   ar
    39    27    16   ar
    40    30    28   ar
    41    16    28   ar
