@<TRIPOS>MOLECULE
8EV1_WVW_B601
 24 27 0 0 0
SMALL
GASTEIGER

@<TRIPOS>ATOM
      1 C          21.0220  -11.4780    4.3270 C.ar    1  UNL1        0.0418
      2 C          21.6510  -11.4100    3.1460 C.ar    1  UNL1        0.1957
      3 C          22.9690  -11.3450    3.1780 C.ar    1  UNL1        0.0418
      4 C          23.6520  -11.3420    4.3350 C.ar    1  UNL1        0.0007
      5 C          23.0440  -11.4260    5.5430 C.ar    1  UNL1       -0.0025
      6 C          21.6930  -11.4770    5.4930 C.ar    1  UNL1        0.0007
      7 C          23.8030  -11.3350    6.8970 C.3     1  UNL1        0.1148
      8 N          25.1240  -10.6850    6.8250 N.pl3   1  UNL1       -0.2352
      9 C          26.2030  -11.0280    7.3680 C.ar    1  UNL1        0.0617
     10 C          26.2720  -11.8900    8.3760 C.ar    1  UNL1       -0.0063
     11 C          24.9870  -12.4920    8.9150 C.3     1  UNL1        0.0256
     12 C          23.7440  -12.4220    7.9730 C.3     1  UNL1        0.0282
     13 C          25.0910  -13.9790    9.0360 C.3     1  UNL1        0.0045
     14 C          23.9300  -14.5440    8.7230 C.3     1  UNL1        0.0004
     15 C          23.3800  -13.8370    7.5280 C.3     1  UNL1        0.0024
     16 C          27.3180  -10.4750    6.8910 C.ar    1  UNL1        0.0171
     17 C          28.5360  -10.7800    7.3890 C.ar    1  UNL1        0.0213
     18 C          28.6700  -11.6540    8.4210 C.ar    1  UNL1        0.1248
     19 C          27.5000  -12.1930    8.8790 C.ar    1  UNL1        0.0170
     20 O          20.9920  -11.4130    1.9780 O.3     1  UNL1       -0.2866
     21 S          30.3370  -12.0840    9.0710 S.O2    1  UNL1        0.0935
     22 O          30.6310  -13.5060    9.0040 O.2     1  UNL1       -0.1503
     23 O          31.3380  -11.0440    9.2430 O.2     1  UNL1       -0.1503
     24 N          30.5490  -12.0790   10.7290 N.3     1  UNL1        0.0392
@<TRIPOS>BOND
     1     2     1   ar
     2     3     2   ar
     3     4     3   ar
     4     5     4   ar
     5     6     1   ar
     6     6     5   ar
     7     7     5    1
     8     8     7    1
     9     9     8    1
    10    10     9   ar
    11    11    10    1
    12    12    11    1
    13    12     7    1
    14    11    13    1
    15    14    13    1
    16    15    14    1
    17    12    15    1
    18    16     9   ar
    19    17    16   ar
    20    18    17   ar
    21    19    10   ar
    22    19    18   ar
    23    20     2    1
    24    21    18    1
    25    22    21    2
    26    23    21    2
    27    21    24    1
