8WTV_E5E_A704
     RDKit          3D

 12 12  0  0  0  0  0  0  0  0999 V2000
  128.7730  132.3000  129.4860 O   0  0  0  0  0  0  0  0  0  0  0  0
  129.8310  131.4370  129.7840 C   0  0  0  0  0  0  0  0  0  0  0  0
  129.6190  130.3400  130.5980 C   0  0  0  0  0  0  0  0  0  0  0  0
  131.0860  131.6860  129.2590 C   0  0  0  0  0  0  0  0  0  0  0  0
  131.2830  132.7990  128.4360 O   0  0  0  0  0  0  0  0  0  0  0  0
  132.1400  130.8370  129.5470 C   0  0  0  0  0  0  0  0  0  0  0  0
  131.9280  129.7380  130.3630 C   0  0  0  0  0  0  0  0  0  0  0  0
  130.6710  129.4890  130.8880 C   0  0  0  0  0  0  0  0  0  0  0  0
  130.4400  128.2750  131.7860 C   0  0  0  0  0  0  0  0  0  0  0  0
  130.5100  128.6650  133.1290 O   0  0  0  0  0  0  0  0  0  0  0  0
  129.0610  127.6870  131.4980 C   0  0  0  0  0  0  0  0  0  0  0  0
  129.1530  126.6810  130.4550 N   0  0  0  0  0  0  0  0  0  0  0  0
  2  1  1  0
  3  2  2  0
  4  2  1  0
  5  4  1  0
  6  4  2  0
  7  6  1  0
  8  3  1  0
  8  7  2  0
  9  8  1  0
  9 10  1  0
 11  9  1  0
 12 11  1  0
M  CHG  1  12   1
M  END
>  <_TriposChargeType>  (1) 
GASTEIGER

$$$$
