@<TRIPOS>MOLECULE
7CKX_G3O_R501
 24 28 0 0 0
SMALL
GASTEIGER

@<TRIPOS>ATOM
      1 C         125.8390  121.5910  142.0030 C.3     1  UNL1        0.1561
      2 N         127.7260  121.6700  140.4780 N.3     1  UNL1       -0.1283
      3 C         126.7280  122.6970  145.5790 C.3     1  UNL1        0.0254
      4 C         126.8050  123.0820  148.0250 C.3     1  UNL1        0.0001
      5 C         128.7460  122.0390  146.8520 C.3     1  UNL1        0.0001
      6 C         128.2440  124.5000  146.4820 C.3     1  UNL1        0.0001
      7 C         127.3200  124.0850  145.3270 C.3     1  UNL1        0.0023
      8 C         127.4170  124.4800  147.7820 C.3     1  UNL1        0.0000
      9 C         123.1640  119.6220  143.8930 C.ar    1  UNL1        0.2301
     10 C         122.4230  119.0820  142.8690 C.ar    1  UNL1        0.2339
     11 C         122.7640  119.3370  141.5760 C.ar    1  UNL1        0.0451
     12 C         123.8480  120.1320  141.2940 C.ar    1  UNL1        0.0013
     13 C         124.6260  120.6990  142.3670 C.ar    1  UNL1        0.0054
     14 C         124.3000  120.4570  143.5950 C.ar    1  UNL1        0.0208
     15 C         125.0670  121.0160  144.7180 C.3     1  UNL1        0.0590
     16 C         125.7720  122.2630  144.3550 C.3     1  UNL1        0.1199
     17 C         126.7920  120.7880  141.1730 C.3     1  UNL1        0.1432
     18 C         125.9380  122.7950  146.8510 C.3     1  UNL1        0.0023
     19 C         127.9520  122.1320  148.1360 C.3     1  UNL1        0.0000
     20 C         127.8980  121.7440  145.6840 C.3     1  UNL1        0.0023
     21 C         129.3530  123.4360  146.6060 C.3     1  UNL1        0.0000
     22 O         126.5820  122.1180  143.1680 O.3     1  UNL1       -0.3525
     23 O         121.3140  118.2680  143.1560 O.3     1  UNL1       -0.2832
     24 O         122.8150  119.3610  145.2260 O.3     1  UNL1       -0.2835
@<TRIPOS>BOND
     1     6     7    1
     2     3     7    1
     3     8     6    1
     4     4     8    1
     5    10     9   ar
     6    11    10   ar
     7    12    11   ar
     8    13    12   ar
     9    13     1    1
    10    14     9   ar
    11    14    13   ar
    12    15    14    1
    13    16    15    1
    14    16     3    1
    15    17     2    1
    16     1    17    1
    17    18     3    1
    18    18     4    1
    19     5    19    1
    20    19     4    1
    21    20     5    1
    22    20     3    1
    23    21     6    1
    24    21     5    1
    25    22    16    1
    26    22     1    1
    27    23    10    1
    28    24     9    1
