@<TRIPOS>MOLECULE
7CKZ_LDP_R502
 11 11 0 0 0
SMALL
GASTEIGER

@<TRIPOS>ATOM
      1 C         126.3190  121.4410  142.7300 C.3     1  UNL1        0.0469
      2 C         124.9980  120.7290  142.4700 C.ar    1  UNL1       -0.0173
      3 C         122.6120  119.4420  141.9630 C.ar    1  UNL1        0.2342
      4 C         124.1830  120.3550  143.5210 C.ar    1  UNL1        0.0412
      5 C         124.6230  120.4610  141.1690 C.ar    1  UNL1       -0.0007
      6 C         123.4300  119.8170  140.9150 C.ar    1  UNL1        0.0451
      7 C         122.9890  119.7100  143.2630 C.ar    1  UNL1        0.2339
      8 O         122.1550  119.3230  144.3150 O.3     1  UNL1       -0.2832
      9 O         121.4040  118.7890  141.7060 O.3     1  UNL1       -0.2831
     10 C         127.3070  121.1880  141.5980 C.3     1  UNL1        0.1140
     11 N         128.0660  122.3920  141.3150 N.3     1  UNL1       -0.1310
@<TRIPOS>BOND
     1     2     1    1
     2     4     2   ar
     3     5     2   ar
     4     6     3   ar
     5     6     5   ar
     6     7     3   ar
     7     7     4   ar
     8     8     7    1
     9     9     3    1
    10    10     1    1
    11    11    10    1
