@<TRIPOS>MOLECULE
7F0T_LDP_F501
 11 11 0 0 0
SMALL
GASTEIGER

@<TRIPOS>ATOM
      1 C         126.0960  121.4010  142.8250 C.3     1  UNL1        0.0469
      2 C         124.7260  120.7560  142.9000 C.ar    1  UNL1       -0.0173
      3 C         122.2450  119.6050  142.9890 C.ar    1  UNL1        0.2342
      4 C         124.4050  119.9330  143.9480 C.ar    1  UNL1        0.0412
      5 C         123.8180  121.0020  141.9000 C.ar    1  UNL1       -0.0007
      6 C         122.5700  120.4270  141.9420 C.ar    1  UNL1        0.0451
      7 C         123.1590  119.3650  143.9880 C.ar    1  UNL1        0.2339
      8 O         122.8330  118.5290  145.0550 O.3     1  UNL1       -0.2832
      9 O         120.9780  119.0230  143.0310 O.3     1  UNL1       -0.2831
     10 C         126.5320  121.5310  141.3780 C.3     1  UNL1        0.1140
     11 N         127.9020  121.9930  141.3240 N.3     1  UNL1       -0.1310
@<TRIPOS>BOND
     1     2     1    1
     2     4     2   ar
     3     5     2   ar
     4     6     3   ar
     5     6     5   ar
     6     7     3   ar
     7     7     4   ar
     8     8     7    1
     9     9     3    1
    10    10     1    1
    11    11    10    1
