@<TRIPOS>MOLECULE
7JV5_SK0_R501
 20 22 0 0 0
SMALL
GASTEIGER

@<TRIPOS>ATOM
      1 C         125.3120  121.2170  144.1740 C.ar    1  UNL1       -0.0167
      2 C         124.8640  120.9100  142.8880 C.ar    1  UNL1       -0.0104
      3 C         124.6750  120.6010  145.2510 C.ar    1  UNL1        0.0412
      4 C         123.8220  120.0140  142.6990 C.ar    1  UNL1        0.0955
      5 C         123.6350  119.7050  145.0560 C.ar    1  UNL1        0.2348
      6 C         123.2050  119.4090  143.7770 C.ar    1  UNL1        0.2443
      7 C         126.4730  122.2220  144.4140 C.3     1  UNL1        0.0617
      8 C         127.7770  121.9170  143.6390 C.3     1  UNL1        0.0974
      9 C         125.4600  121.5100  141.6430 C.3     1  UNL1        0.0458
     10 C         126.9350  121.2000  141.4640 C.3     1  UNL1        0.0934
     11 C         126.9010  122.3250  145.8830 C.ar    1  UNL1       -0.0170
     12 C         126.3580  123.3160  146.6930 C.ar    1  UNL1       -0.0039
     13 C         127.8420  121.4420  146.4170 C.ar    1  UNL1       -0.0039
     14 C         126.7420  123.4170  148.0220 C.ar    1  UNL1       -0.0003
     15 C         128.2250  121.5450  147.7440 C.ar    1  UNL1       -0.0003
     16 C         127.6750  122.5330  148.5460 C.ar    1  UNL1       -0.0000
     17 N         127.7470  122.1740  142.1950 N.3     1  UNL1       -0.2170
     18 O         123.0330  119.1120  146.1190 O.3     1  UNL1       -0.2831
     19 O         122.1850  118.5320  143.5750 O.3     1  UNL1       -0.2822
     20 CL        123.2910  119.6500  141.1040 Cl      1  UNL1       -0.0791
@<TRIPOS>BOND
     1     2     1   ar
     2     3     1   ar
     3     4     2   ar
     4     5     3   ar
     5     6     5   ar
     6     6     4   ar
     7     7     1    1
     8     8     7    1
     9     9     2    1
    10    10     9    1
    11     7    11    1
    12    12    11   ar
    13    13    11   ar
    14    14    12   ar
    15    15    13   ar
    16    16    15   ar
    17    16    14   ar
    18    17    10    1
    19    17     8    1
    20    18     5    1
    21    19     6    1
    22    20     4    1
