@<TRIPOS>MOLECULE
7JVQ_OR9_R501
 20 23 0 0 0
SMALL
GASTEIGER

@<TRIPOS>ATOM
      1 C         126.8450  121.3400  142.6360 C.3     1  UNL1        0.0842
      2 C         126.6130  121.5970  144.1260 C.ar    1  UNL1       -0.0113
      3 C         125.5540  121.7830  141.9200 C.3     1  UNL1        0.0469
      4 C         127.5930  122.2280  144.9150 C.ar    1  UNL1       -0.0235
      5 C         129.1840  121.8540  143.0340 C.3     1  UNL1        0.0771
      6 C         128.8950  122.6510  144.3030 C.3     1  UNL1        0.0434
      7 C         125.3750  121.1830  144.6760 C.ar    1  UNL1       -0.0001
      8 C         124.4830  120.8290  142.3840 C.ar    1  UNL1       -0.0172
      9 C         124.3920  120.5230  143.7640 C.ar    1  UNL1        0.0380
     10 C         128.4700  121.1720  140.8800 C.3     1  UNL1        0.0899
     11 C         127.3580  122.4580  146.2730 C.ar    1  UNL1       -0.0045
     12 C         125.1790  121.4430  146.0430 C.ar    1  UNL1       -0.0002
     13 C         123.6240  120.2570  141.4360 C.ar    1  UNL1       -0.0007
     14 C         123.3810  119.6060  144.1390 C.ar    1  UNL1        0.2338
     15 C         126.1520  122.0620  146.8330 C.ar    1  UNL1       -0.0003
     16 C         122.5250  119.0470  143.1860 C.ar    1  UNL1        0.2342
     17 C         122.6400  119.3670  141.8410 C.ar    1  UNL1        0.0451
     18 N         128.0770  121.9390  142.0660 N.3     1  UNL1       -0.2685
     19 O         123.1300  119.1820  145.4160 O.3     1  UNL1       -0.2832
     20 O         121.5540  118.1710  143.5590 O.3     1  UNL1       -0.2831
@<TRIPOS>BOND
     1     2     1    1
     2     1     3    1
     3     4     2   ar
     4     6     5    1
     5     6     4    1
     6     7     2   ar
     7     8     3    1
     8     9     8   ar
     9     9     7    1
    10    11     4   ar
    11    12     7   ar
    12    13     8   ar
    13    14     9   ar
    14    15    12   ar
    15    15    11   ar
    16    16    14   ar
    17    17    16   ar
    18    17    13   ar
    19    18    10    1
    20    18     5    1
    21    18     1    1
    22    19    14    1
    23    20    16    1
