@<TRIPOS>MOLECULE
7X2D_86W_F502
 28 30 0 0 0
SMALL
GASTEIGER

@<TRIPOS>ATOM
      1 C         123.6730  120.0110  142.4530 C.ar    1  UNL1        0.1248
      2 C         125.6960  120.6460  140.8800 C.ar    1  UNL1        0.1021
      3 C         122.6430  119.7300  143.4990 C.3     1  UNL1        0.4229
      4 C         130.2090  123.7880  146.2610 C.ar    1  UNL1        0.0519
      5 C         131.2590  124.5400  146.9660 C.ar    1  UNL1        0.2804
      6 C         129.6490  125.1230  148.7900 C.ar    1  UNL1        0.3528
      7 C         130.5590  123.1100  144.9490 C.3     1  UNL1        0.0376
      8 C         128.8090  120.8580  147.1100 C.3     1  UNL1        0.0312
      9 C         127.7560  121.5560  146.2680 C.ar    1  UNL1       -0.0174
     10 C         127.7660  122.9230  146.1400 C.ar    1  UNL1        0.0120
     11 C         126.8030  123.5390  145.3880 C.ar    1  UNL1        0.0042
     12 C         125.8350  122.7700  144.7880 C.ar    1  UNL1        0.0376
     13 C         125.8320  121.3990  144.9060 C.ar    1  UNL1        0.1469
     14 C         126.7930  120.7940  145.6590 C.ar    1  UNL1        0.0334
     15 C         124.8370  120.4920  142.9530 C.ar    1  UNL1        0.2335
     16 C         123.4620  119.8490  141.1130 C.ar    1  UNL1        0.0102
     17 C         124.5290  120.1770  140.3120 C.ar    1  UNL1        0.0208
     18 C         128.8540  123.7100  146.8480 C.ar    1  UNL1        0.0643
     19 C         127.2940  124.3410  148.7450 C.3     1  UNL1        0.1351
     20 F         123.3290  119.5740  144.6530 F       1  UNL1       -0.1657
     21 F         121.8650  118.6660  143.2060 F       1  UNL1       -0.1657
     22 F         121.9010  120.8530  143.5990 F       1  UNL1       -0.1657
     23 N         125.8320  120.7930  142.1750 N.ar    1  UNL1       -0.2099
     24 N         130.9920  125.2010  148.2120 N.ar    1  UNL1       -0.1534
     25 N         128.5890  124.3720  148.1080 N.ar    1  UNL1       -0.2781
     26 O         124.8550  120.5900  144.3340 O.3     1  UNL1       -0.4362
     27 O         132.3240  124.5840  146.4960 O.2     1  UNL1       -0.2654
     28 O         129.4200  125.6580  149.8080 O.2     1  UNL1       -0.2443
@<TRIPOS>BOND
     1     3     1    1
     2     5     4   ar
     3     7     4    1
     4     9     8    1
     5    10     9   ar
     6    11    10   ar
     7    12    11   ar
     8    13    12   ar
     9    14    13   ar
    10    14     9   ar
    11    15     1   ar
    12    16     1   ar
    13    17    16   ar
    14    17     2   ar
    15    18    10    1
    16    18     4   ar
    17     3    20    1
    18    21     3    1
    19    22     3    1
    20    23    15   ar
    21    23     2   ar
    22    24     6   ar
    23    24     5   ar
    24    25    18   ar
    25    25    19    1
    26    25     6   ar
    27    26    15    1
    28    26    13    1
    29    27     5    2
    30    28     6    2
