@<TRIPOS>MOLECULE
8IRR_R5F_R501
 47 49 0 0 0
SMALL
GASTEIGER

@<TRIPOS>ATOM
      1  N1       127.8210  122.0700  142.8990 N.3   501  R5F501     -0.2988
      2  C4       128.9490  122.0040  143.9230 C.3   501  R5F501      0.0036
      3  C5       129.0260  123.2200  144.8570 C.3   501  R5F501     -0.0086
      4  C6       130.2170  123.1070  145.7450 C.ar  501  R5F501     -0.0090
      5  C7       130.2170  122.2100  146.8540 C.ar  501  R5F501     -0.0515
      6  C8       131.4370  122.2540  147.5000 C.ar  501  R5F501     -0.0545
      7  C10      126.6300  121.1720  143.2150 C.3   501  R5F501      0.0147
      8  C13      123.9790  120.1130  143.9070 C.ar  501  R5F501     -0.0027
      9  C15      125.4640  121.3600  142.2190 C.3   501  R5F501     -0.0116
     10  C17      122.0470  119.7110  141.9220 C.ar  501  R5F501     -0.0580
     11  C1       129.7710  120.4250  139.9690 C.3   501  R5F501     -0.0641
     12  O1       122.5840  118.8870  145.4310 O.3   501  R5F501     -0.5065
     13  S1       131.7100  123.9630  145.5450 S.2   501  R5F501     -0.1016
     14  C2       128.9650  120.4340  141.2710 C.3   501  R5F501     -0.0430
     15  C3       128.3810  121.8320  141.5110 C.3   501  R5F501     -0.0011
     16  C9       132.3110  123.1230  146.9180 C.ar  501  R5F501     -0.0241
     17  C11      126.0860  121.3730  144.6440 C.3   501  R5F501     -0.0329
     18  C12      125.0050  120.3410  145.0000 C.3   501  R5F501     -0.0225
     19  C14      124.1940  120.6100  142.6050 C.ar  501  R5F501     -0.0393
     20  C16      123.2020  120.4320  141.6330 C.ar  501  R5F501     -0.0580
     21  C18      121.8720  119.1470  143.1840 C.ar  501  R5F501     -0.0199
     22  C19      122.8170  119.3700  144.1810 C.ar  501  R5F501      0.1203
     23  H2       129.8940  121.9260  143.3850 H     501  R5F501      0.0430
     24  H3       128.8180  121.1070  144.5290 H     501  R5F501      0.0430
     25  H4       129.1070  124.1280  144.2600 H     501  R5F501      0.0331
     26  H5       128.1230  123.2660  145.4660 H     501  R5F501      0.0331
     27  H6       129.3840  121.5870  147.1460 H     501  R5F501      0.0626
     28  H7       131.6730  121.6630  148.3730 H     501  R5F501      0.0623
     29  H8       126.9670  120.1380  143.1350 H     501  R5F501      0.0466
     30  H9       125.7860  121.0190  141.2360 H     501  R5F501      0.0328
     31  H10      125.2300  122.4230  142.1620 H     501  R5F501      0.0328
     32  H11      121.2840  119.5890  141.1680 H     501  R5F501      0.0619
     33  H12      130.1840  119.4300  139.8030 H     501  R5F501      0.0230
     34  H13      129.1190  120.6910  139.1370 H     501  R5F501      0.0230
     35  H14      130.5830  121.1490  140.0390 H     501  R5F501      0.0230
     36  H15      122.7490  119.5780  146.0780 H     501  R5F501      0.2921
     37  H16      128.1540  119.7100  141.1990 H     501  R5F501      0.0275
     38  H17      129.6170  120.1670  142.1020 H     501  R5F501      0.0275
     39  H18      127.5760  121.9880  140.7920 H     501  R5F501      0.0426
     40  H19      129.1610  122.5700  141.3230 H     501  R5F501      0.0426
     41  H20      133.3120  123.2720  147.2940 H     501  R5F501      0.0693
     42  H21      125.6580  122.3720  144.7190 H     501  R5F501      0.0284
     43  H22      126.9090  121.2850  145.3530 H     501  R5F501      0.0284
     44  H23      125.4960  119.3910  145.2110 H     501  R5F501      0.0315
     45  H24      124.4870  120.6740  145.8990 H     501  R5F501      0.0315
     46  H25      123.3350  120.8580  140.6490 H     501  R5F501      0.0620
     47  H26      121.0040  118.5360  143.3880 H     501  R5F501      0.0654
@<TRIPOS>BOND
     1    34    11    1
     2    33    11    1
     3    11    35    1
     4    11    14    1
     5    46    20    1
     6    39    15    1
     7    32    10    1
     8    37    14    1
     9    30     9    1
    10    14    15    1
    11    14    38    1
    12    40    15    1
    13    15     1    1
    14    20    10   ar
    15    20    19   ar
    16    10    21   ar
    17    31     9    1
    18     9    19    1
    19     9     7    1
    20    19     8   ar
    21     1     7    1
    22     1     2    1
    23    29     7    1
    24    21    47    1
    25    21    22   ar
    26     7    17    1
    27    23     2    1
    28     8    22   ar
    29     8    18    1
    30     2    24    1
    31     2     3    1
    32    22    12    1
    33    25     3    1
    34    17    42    1
    35    17    18    1
    36    17    43    1
    37     3    26    1
    38     3     4    1
    39    18    44    1
    40    18    45    1
    41    12    36    1
    42    13     4   ar
    43    13    16   ar
    44     4     5   ar
    45     5    27    1
    46     5     6   ar
    47    16    41    1
    48    16     6   ar
    49     6    28    1
