@<TRIPOS>MOLECULE
9I54_A1IZV_R501
 27 30 0 0 0
SMALL
GASTEIGER

@<TRIPOS>ATOM
      1 C         126.6050  121.0470  146.5150 C.ar    1  UNL1        0.0704
      2 C         125.7710  121.6630  145.5940 C.ar    1  UNL1        0.1685
      3 C         125.9160  123.0090  145.3370 C.ar    1  UNL1        0.1364
      4 C         124.6770  120.8060  143.6240 C.ar    1  UNL1        0.2327
      5 C         124.3150  120.5400  140.9890 C.ar    1  UNL1        0.0584
      6 C         130.8780  125.0500  147.4750 C.ar    1  UNL1        0.2804
      7 C         130.2990  123.4840  145.5890 C.3     1  UNL1        0.0377
      8 C         127.0180  124.5490  149.2290 C.3     1  UNL1        0.1352
      9 C         122.2470  119.6420  143.7840 C.ar    1  UNL1        0.0484
     10 C         128.6730  124.0390  147.4370 C.ar    1  UNL1        0.0844
     11 C         123.4580  120.2060  143.2600 C.ar    1  UNL1        0.0912
     12 C         123.3490  120.1100  141.8770 C.ar    1  UNL1        0.1515
     13 C         125.4500  121.1030  141.5300 C.ar    1  UNL1        0.1052
     14 C         129.9020  124.1860  146.8540 C.ar    1  UNL1        0.0535
     15 C         129.2460  125.5500  149.2400 C.ar    1  UNL1        0.3528
     16 C         127.6680  123.1720  146.8180 C.ar    1  UNL1        0.1245
     17 C         121.5220  119.2630  142.7340 C.ar    1  UNL1        0.1798
     18 C         127.5640  121.8120  147.1270 C.ar    1  UNL1        0.1621
     19 F         128.3910  121.2260  148.0200 F       1  UNL1       -0.2024
     20 N         125.6510  121.2440  142.8450 N.ar    1  UNL1       -0.2096
     21 N         130.4700  125.6730  148.6320 N.ar    1  UNL1       -0.1534
     22 N         128.3380  124.7100  148.6160 N.ar    1  UNL1       -0.2765
     23 N         126.8500  123.7580  145.9290 N.ar    1  UNL1       -0.2369
     24 O         128.9730  126.1450  150.2700 O.2     1  UNL1       -0.2443
     25 O         132.0080  125.2430  147.0310 O.2     1  UNL1       -0.2654
     26 O         122.1540  119.5260  141.5350 O.2     1  UNL1       -0.4502
     27 O         124.7840  120.8970  144.9780 O.3     1  UNL1       -0.4343
@<TRIPOS>BOND
     1     2     1   ar
     2     3     2   ar
     3    11     9   ar
     4    11     4   ar
     5    12     5   ar
     6    12    11   ar
     7    13     5   ar
     8    14     7    1
     9    14    10   ar
    10    14     6   ar
    11    16    10    1
    12    17     9   ar
    13    18    16   ar
    14    18     1   ar
    15    19    18    1
    16    20     4   ar
    17    20    13   ar
    18    21    15   ar
    19    21     6   ar
    20    22    10   ar
    21    22     8    1
    22    22    15   ar
    23    23    16   ar
    24    23     3   ar
    25    24    15    2
    26    25     6    2
    27    26    17   ar
    28    26    12   ar
    29    27     4    1
    30    27     2    1
