@<TRIPOS>MOLECULE
9LLE_LDP_R701
 11 11 0 0 0
SMALL
GASTEIGER

@<TRIPOS>ATOM
      1 C         126.2870  121.6880  142.5220 C.3     1  UNL1        0.0469
      2 C         125.0920  120.8020  142.8660 C.ar    1  UNL1       -0.0173
      3 C         122.9300  119.1950  143.5060 C.ar    1  UNL1        0.2342
      4 C         124.1010  120.5700  141.9270 C.ar    1  UNL1        0.0412
      5 C         125.0000  120.2310  144.1230 C.ar    1  UNL1       -0.0007
      6 C         123.9200  119.4270  144.4440 C.ar    1  UNL1        0.0451
      7 C         123.0200  119.7650  142.2490 C.ar    1  UNL1        0.2339
      8 O         122.0160  119.5260  141.3050 O.3     1  UNL1       -0.2832
      9 O         121.8360  118.3820  143.8240 O.3     1  UNL1       -0.2831
     10 C         126.9920  121.2540  141.2400 C.3     1  UNL1        0.1140
     11 N         128.3770  121.6880  141.2600 N.3     1  UNL1       -0.1310
@<TRIPOS>BOND
     1     2     1    1
     2     4     2   ar
     3     5     2   ar
     4     6     3   ar
     5     6     5   ar
     6     7     3   ar
     7     7     4   ar
     8     8     7    1
     9     9     3    1
    10    10     1    1
    11    11    10    1
