5DRS_5EF_A305
     RDKit          3D

 29 31  0  0  0  0  0  0  0  0999 V2000
   -0.1040    7.0770   11.0330 O   0  0  0  0  0  0  0  0  0  0  0  0
   -1.6930    5.7950   12.3010 C   0  0  0  0  0  0  0  0  0  0  0  0
   -3.6370    2.6670   15.7080 C   0  0  0  0  0  0  0  0  0  0  0  0
   -2.8960    1.6600   16.2110 F   0  0  0  0  0  0  0  0  0  0  0  0
   -5.0280    2.5190   15.7470 C   0  0  0  0  0  0  0  0  0  0  0  0
   -1.6110    3.7660   15.1540 F   0  0  0  0  0  0  0  0  0  0  0  0
   -6.9680    3.5950   15.1320 F   0  0  0  0  0  0  0  0  0  0  0  0
   -1.6350    6.5650   14.7170 O   0  0  0  0  0  0  0  0  0  0  0  0
   -2.6720    6.1110   13.8020 S   0  0  1  0  0  0  0  0  0  0  0  0
   -3.6080    7.1860   13.3420 O   0  0  0  0  0  0  0  0  0  0  0  0
   -1.3940    7.1050   11.5820 C   0  0  0  0  0  0  0  0  0  0  0  0
   -3.6470    4.8170   14.5130 C   0  0  0  0  0  0  0  0  0  0  0  0
   -2.9700    3.7160   15.1010 C   0  0  0  0  0  0  0  0  0  0  0  0
   -5.0850    4.7330   14.4840 C   0  0  0  0  0  0  0  0  0  0  0  0
   -5.6720    3.6180   15.1540 C   0  0  0  0  0  0  0  0  0  0  0  0
   -5.7540    1.1040   16.6180 S   0  0  1  0  0  0  0  0  0  0  0  0
   -7.2990    1.0910   16.7610 O   0  0  0  0  0  0  0  0  0  0  0  0
   -5.3920   -0.2630   15.9340 N   0  0  0  0  0  0  0  0  0  0  0  0
   -5.3080    1.1460   18.0060 O   0  0  0  0  0  0  0  0  0  0  0  0
   -5.9220    5.7080   14.0300 N   0  0  0  0  0  0  0  0  0  0  0  0
   -6.4530    5.7210   12.7160 C   0  0  0  0  0  0  0  0  0  0  0  0
   -7.1290    7.0020   12.1930 C   0  0  0  0  0  0  0  0  0  0  0  0
   -6.1260    7.5860   11.2280 C   0  0  0  0  0  0  0  0  0  0  0  0
   -5.5130    6.3530   10.7330 C   0  0  0  0  0  0  0  0  0  0  0  0
   -4.7570    6.1800    9.5510 C   0  0  0  0  0  0  0  0  0  0  0  0
   -4.2180    4.8850    9.3350 C   0  0  0  0  0  0  0  0  0  0  0  0
   -4.3810    3.7780   10.2050 C   0  0  0  0  0  0  0  0  0  0  0  0
   -5.1070    3.9610   11.3360 C   0  0  0  0  0  0  0  0  0  0  0  0
   -5.6330    5.2560   11.5960 C   0  0  0  0  0  0  0  0  0  0  0  0
  4  3  1  0
  5  3  2  0
  9  8  2  0
  9  2  1  6
 10  9  2  0
 11  2  1  0
 11  1  1  0
 12  9  1  0
 13 12  2  0
 13  6  1  0
 13  3  1  0
 14 12  1  0
 15  7  1  0
 15 14  2  0
 15  5  1  0
 16  5  1  0
 17 16  2  0
 16 18  1  6
 19 16  2  0
 20 14  1  0
 21 20  1  0
 22 21  1  0
 23 22  1  0
 24 23  1  0
 25 24  1  0
 26 25  2  0
 27 26  1  0
 28 27  2  0
 29 24  2  0
 29 21  1  0
 29 28  1  0
M  CHG  1  20   1
M  END
>  <_TriposChargeType>  (1) 
GASTEIGER

$$$$
