2NNO_M28_A301
     RDKit          3D

 15 15  0  0  0  0  0  0  0  0999 V2000
   -5.1270    2.3160   15.6910 C   0  0  0  0  0  0  0  0  0  0  0  0
   -5.9350    3.3860   15.3030 C   0  0  0  0  0  0  0  0  0  0  0  0
   -5.4060    4.4040   14.5340 C   0  0  0  0  0  0  0  0  0  0  0  0
   -4.0690    4.4360   14.1860 C   0  0  0  0  0  0  0  0  0  0  0  0
   -3.2780    3.3660   14.5910 C   0  0  0  0  0  0  0  0  0  0  0  0
   -3.7880    2.2910   15.3060 C   0  0  0  0  0  0  0  0  0  0  0  0
   -5.8140    0.9970   16.6650 S   0  0  2  0  0  0  0  0  0  0  0  0
   -7.2460    1.1140   16.5310 O   0  0  0  0  0  0  0  0  0  0  0  0
   -5.2510    1.1830   17.9940 O   0  0  0  0  0  0  0  0  0  0  0  0
   -5.3130   -0.3840   16.0420 N   0  0  0  0  0  0  0  0  0  0  0  0
   -3.5680    5.5560   13.3410 C   0  0  0  0  0  0  0  0  0  0  0  0
   -2.2840    6.1540   13.8350 C   0  0  0  0  0  0  0  0  0  0  0  0
   -1.6770    7.2520   12.9940 C   0  0  0  0  0  0  0  0  0  0  0  0
   -0.4500    7.2670   12.7470 O   0  0  0  0  0  0  0  0  0  0  0  0
   -2.3950    8.1820   12.5910 O   0  0  0  0  0  0  0  0  0  0  0  0
  2  1  2  0
  3  2  1  0
  4  3  2  0
  5  4  1  0
  6  5  2  0
  6  1  1  0
  7  1  1  0
  8  7  2  0
  9  7  2  0
  7 10  1  6
 11  4  1  0
 12 11  1  0
 13 12  1  0
 14 13  2  0
 15 13  1  0
M  END
>  <_TriposChargeType>  (1) 
GASTEIGER

$$$$
