8QFK_UII_AAA301
     RDKit          3D

 28 29  0  0  0  0  0  0  0  0999 V2000
   -1.4630    4.9170   13.1210 C   0  0  0  0  0  0  0  0  0  0  0  0
   -2.2330    6.8680   14.5460 C   0  0  0  0  0  0  0  0  0  0  0  0
   -2.0760    8.1610   15.0010 C   0  0  0  0  0  0  0  0  0  0  0  0
   -0.5110    8.5920   13.2540 C   0  0  0  0  0  0  0  0  0  0  0  0
    1.2070    8.9770   11.5540 C   0  0  0  0  0  0  0  0  0  0  0  0
    2.3090    8.3610   12.3870 C   0  0  0  0  0  0  0  0  0  0  0  0
   -3.9000    4.9150   12.6570 C   0  0  0  0  0  0  0  0  0  0  0  0
   -4.3020    4.1380   13.9060 C   0  0  0  0  0  0  0  0  0  0  0  0
   -3.9400    2.2000   15.2680 C   0  0  0  0  0  0  0  0  0  0  0  0
   -5.2620    2.2470   15.6940 C   0  0  0  0  0  0  0  0  0  0  0  0
   -5.3760   -0.3990   16.1730 N   0  0  0  0  0  0  0  0  0  0  0  0
   -3.0010    4.0250    9.7720 O   0  0  0  0  0  0  0  0  0  0  0  0
   -2.1050    3.6500   10.8260 S   0  0  1  0  0  0  0  0  0  0  0  0
   -2.1190    2.2770   11.2820 O   0  0  0  0  0  0  0  0  0  0  0  0
   -0.4550    3.9950   10.3590 C   0  0  0  0  0  0  0  0  0  0  0  0
   -2.5210    4.5940   12.1380 N   0  0  0  0  0  0  0  0  0  0  0  0
   -5.5490    4.2750   14.4750 C   0  0  0  0  0  0  0  0  0  0  0  0
   -6.0310    3.3280   15.3700 C   0  0  0  0  0  0  0  0  0  0  0  0
   -5.8630    0.9820   16.7630 S   0  0  1  0  0  0  0  0  0  0  0  0
   -5.2360    1.2160   18.0480 O   0  0  0  0  0  0  0  0  0  0  0  0
   -7.3040    1.0910   16.6960 O   0  0  0  0  0  0  0  0  0  0  0  0
   -3.4770    3.1400   14.3800 C   0  0  0  0  0  0  0  0  0  0  0  0
   -1.4720    6.3850   13.4880 C   0  0  0  0  0  0  0  0  0  0  0  0
   -0.6290    7.2680   12.8320 C   0  0  0  0  0  0  0  0  0  0  0  0
   -1.1810    9.0160   14.3920 C   0  0  0  0  0  0  0  0  0  0  0  0
    0.1880    9.4600   12.4520 N   0  0  0  0  0  0  0  0  0  0  0  0
    2.8080    8.8470   13.4560 O   0  0  0  0  0  0  0  0  0  0  0  0
    2.6910    7.2210   11.8290 O   0  0  0  0  0  0  0  0  0  0  0  0
  3  2  2  0
  6  5  1  0
  8  7  1  0
 10  9  2  0
 13 12  2  0
 14 13  2  0
 13 15  1  6
 16 13  1  0
 16  7  1  0
 16  1  1  0
 17  8  1  0
 18 17  2  0
 18 10  1  0
 19 11  1  6
 19 10  1  0
 20 19  2  0
 21 19  2  0
 22  9  1  0
 22  8  2  0
 23  1  1  0
 23  2  1  0
 24 23  2  0
 24  4  1  0
 25  4  2  0
 25  3  1  0
 26  5  1  0
 26  4  1  0
 27  6  2  0
 28  6  1  0
M  CHG  2  16   1  28  -1
M  END
>  <_TriposChargeType>  (1) 
GASTEIGER

$$$$
