4MDD_29M_B801
     RDKit          3D

 36 39  0  0  0  0  0  0  0  0999 V2000
   27.7650    9.5720   14.4530 C   0  0  0  0  0  0  0  0  0  0  0  0
   34.6270    9.2120   10.4130 F   0  0  0  0  0  0  0  0  0  0  0  0
   28.2090    5.8250   12.9240 N   0  0  0  0  0  0  0  0  0  0  0  0
   30.4130    7.0800    9.6740 O   0  0  0  0  0  0  0  0  0  0  0  0
   25.4770    5.6730   15.9020 S   0  0  2  0  0  0  0  0  0  0  0  0
   26.7140    8.7020   14.6670 C   0  0  0  0  0  0  0  0  0  0  0  0
   30.0170    3.4810   12.3640 N   0  0  0  0  0  0  0  0  0  0  0  0
   24.2880    4.8460   15.7790 O   0  0  0  0  0  0  0  0  0  0  0  0
   26.7570    7.3940   14.2220 C   0  0  0  0  0  0  0  0  0  0  0  0
   25.6320    6.5300   14.4260 N   0  0  0  0  0  0  0  0  0  0  0  0
   26.7510    5.0940   16.2770 O   0  0  0  0  0  0  0  0  0  0  0  0
   27.8810    7.0140   13.5130 C   0  0  0  0  0  0  0  0  0  0  0  0
   29.4230    5.8970   12.2930 C   0  0  0  0  0  0  0  0  0  0  0  0
   29.9070    7.1760   12.4780 C   0  0  0  0  0  0  0  0  0  0  0  0
   28.9380    7.8740   13.2550 C   0  0  0  0  0  0  0  0  0  0  0  0
   28.8800    9.1680   13.7460 C   0  0  0  0  0  0  0  0  0  0  0  0
   31.1410    7.6870   11.8990 C   0  0  0  0  0  0  0  0  0  0  0  0
   32.0760    8.2670   12.7450 C   0  0  0  0  0  0  0  0  0  0  0  0
   33.2600    8.7910   12.2650 C   0  0  0  0  0  0  0  0  0  0  0  0
   33.4830    8.7290   10.9060 C   0  0  0  0  0  0  0  0  0  0  0  0
   32.5630    8.1750   10.0370 C   0  0  0  0  0  0  0  0  0  0  0  0
   31.3800    7.6510   10.5270 C   0  0  0  0  0  0  0  0  0  0  0  0
   30.7610    7.1560    8.2980 C   0  0  0  0  0  0  0  0  0  0  0  0
   30.0010    4.7360   11.5850 C   0  0  0  0  0  0  0  0  0  0  0  0
   30.4790    2.3610   11.5010 C   0  0  0  0  0  0  0  0  0  0  0  0
   30.7540    3.5960   13.6520 C   0  0  0  0  0  0  0  0  0  0  0  0
   30.3360    2.5660   14.6390 C   0  0  0  0  0  0  0  0  0  0  0  0
   28.9960    2.3310   14.8870 C   0  0  0  0  0  0  0  0  0  0  0  0
   28.6300    1.3620   15.8010 C   0  0  0  0  0  0  0  0  0  0  0  0
   29.5990    0.6320   16.4640 C   0  0  0  0  0  0  0  0  0  0  0  0
   30.9370    0.8730   16.2210 C   0  0  0  0  0  0  0  0  0  0  0  0
   31.3060    1.8390   15.3060 C   0  0  0  0  0  0  0  0  0  0  0  0
   25.1240    6.9420   17.0710 C   0  0  0  0  0  0  0  0  0  0  0  0
   27.7640   10.9810   14.9680 C   0  0  0  0  0  0  0  0  0  0  0  0
   26.6470   11.8430   14.4270 C   0  0  0  0  0  0  0  0  0  0  0  0
   27.8790   11.0420   16.4750 C   0  0  0  0  0  0  0  0  0  0  0  0
  6  1  2  0
  8  5  2  0
  9  6  1  0
 10  9  1  0
 10  5  1  0
 11  5  2  0
 12  9  2  0
 12  3  1  0
 13  3  1  0
 14 13  2  0
 15 14  1  0
 15 12  1  0
 16 15  2  0
 16  1  1  0
 17 14  1  0
 18 17  2  0
 19 18  1  0
 20  2  1  0
 20 19  2  0
 21 20  1  0
 22 21  2  0
 22  4  1  0
 22 17  1  0
 23  4  1  0
 24  7  1  0
 24 13  1  0
 25  7  1  0
 26  7  1  0
 27 26  1  0
 28 27  2  0
 29 28  1  0
 30 29  2  0
 31 30  1  0
 32 31  2  0
 32 27  1  0
  5 33  1  1
 34  1  1  0
 34 35  1  0
 36 34  1  0
M  CHG  1   7   1
M  END
>  <_TriposChargeType>  (1) 
GASTEIGER

$$$$
