@<TRIPOS>MOLECULE
1BV7_XV6_A638
 54 60 0 0 0
SMALL
GASTEIGER

@<TRIPOS>ATOM
      1 O          -8.2680   14.2230   27.8490 O.2     1  UNL1       -0.2523
      2 O         -11.7080   18.6950   28.8780 O.3     1  UNL1       -0.2186
      3 O         -10.1090   19.5000   26.7560 O.3     1  UNL1       -0.2186
      4 N          -9.6750   15.5700   28.8890 N.am    1  UNL1       -0.2586
      5 N          -8.7030   16.0950   26.7850 N.am    1  UNL1       -0.2586
      6 C          -8.8810   15.2800   27.8410 C.2     1  UNL1        0.3077
      7 C          -9.4470   14.8050   30.1210 C.3     1  UNL1        0.1217
      8 C         -10.8310   16.4720   28.8540 C.3     1  UNL1        0.1144
      9 C         -10.5620   17.9410   28.5420 C.3     1  UNL1        0.2021
     10 C         -10.2040   18.1420   27.0840 C.3     1  UNL1        0.2021
     11 C          -8.8250   17.5800   26.8220 C.3     1  UNL1        0.1144
     12 C          -8.1210   15.4740   25.5880 C.3     1  UNL1        0.1217
     13 C         -11.9310   15.7400   28.0510 C.3     1  UNL1        0.0489
     14 C         -12.4690   14.5370   28.8180 C.ar    1  UNL1       -0.0204
     15 C         -12.1020   13.2210   28.4360 C.ar    1  UNL1       -0.0042
     16 C         -12.5510   12.1140   29.1820 C.ar    1  UNL1       -0.0003
     17 C         -13.3770   12.3200   30.3030 C.ar    1  UNL1       -0.0000
     18 C         -13.7610   13.6270   30.6890 C.ar    1  UNL1       -0.0003
     19 C         -13.3060   14.7370   29.9490 C.ar    1  UNL1       -0.0042
     20 C          -7.7020   18.2270   27.6980 C.3     1  UNL1        0.0489
     21 C          -6.2670   17.9710   27.2430 C.ar    1  UNL1       -0.0204
     22 C          -5.4730   17.0250   27.9180 C.ar    1  UNL1       -0.0042
     23 C          -4.1670   16.7460   27.4790 C.ar    1  UNL1       -0.0003
     24 C          -3.6580   17.4150   26.3540 C.ar    1  UNL1       -0.0000
     25 C          -4.4430   18.3620   25.6760 C.ar    1  UNL1       -0.0003
     26 C          -5.7470   18.6530   26.1190 C.ar    1  UNL1       -0.0042
     27 C          -9.3530   15.5800   31.4080 C.ar    1  UNL1       -0.0021
     28 C         -10.0230   15.0890   32.5360 C.ar    1  UNL1        0.0020
     29 C          -9.9250   15.7710   33.7680 C.ar    1  UNL1        0.0552
     30 C          -9.1470   16.9400   33.8750 C.ar    1  UNL1        0.0046
     31 C          -8.4710   17.4310   32.7460 C.ar    1  UNL1       -0.0001
     32 C          -8.5820   16.7610   31.5150 C.ar    1  UNL1       -0.0026
     33 C         -10.6830   15.2850   34.9560 C.2     1  UNL1        0.2707
     34 O         -10.9980   15.9820   35.9090 O.2     1  UNL1       -0.2679
     35 N         -10.9510   13.9740   34.8810 N.am    1  UNL1       -0.1505
     36 N         -11.5910   11.8400   36.0040 N.ar    1  UNL1       -0.2209
     37 C         -11.5590   13.1850   35.9550 C.ar    1  UNL1        0.1861
     38 C         -12.2930   11.3710   37.0870 C.ar    1  UNL1        0.1079
     39 S         -12.3890   13.8410   37.2620 S.2     1  UNL1       -0.0491
     40 C         -12.8350   12.3590   37.9350 C.ar    1  UNL1        0.0588
     41 C          -8.8040   15.7680   24.2930 C.ar    1  UNL1       -0.0021
     42 C          -8.0080   16.1220   23.2100 C.ar    1  UNL1        0.0020
     43 C          -8.6120   16.4790   21.9840 C.ar    1  UNL1        0.0552
     44 C         -10.0240   16.4670   21.8390 C.ar    1  UNL1        0.0046
     45 C         -10.8270   16.0870   22.9310 C.ar    1  UNL1       -0.0001
     46 C         -10.2150   15.7340   24.1510 C.ar    1  UNL1       -0.0026
     47 C          -7.7510   16.8780   20.8370 C.2     1  UNL1        0.2707
     48 O          -8.1150   17.6460   19.9660 O.2     1  UNL1       -0.2679
     49 N          -6.5270   16.3400   20.8450 N.am    1  UNL1       -0.1505
     50 N          -4.3410   16.0920   19.6890 N.ar    1  UNL1       -0.2209
     51 C          -5.5670   16.6250   19.7840 C.ar    1  UNL1        0.1861
     52 C          -3.7000   16.4760   18.5400 C.ar    1  UNL1        0.1079
     53 S          -5.9010   17.6090   18.4510 S.2     1  UNL1       -0.0491
     54 C          -4.4210   17.3430   17.6930 C.ar    1  UNL1        0.0588
@<TRIPOS>BOND
     1     6     5   am
     2     6     4   am
     3     6     1    2
     4     7     4    1
     5     8     4    1
     6     9     2    1
     7     9     8    1
     8    10     3    1
     9    10     9    1
    10    11     5    1
    11    11    10    1
    12    12     5    1
    13     8    13    1
    14    14    13    1
    15    15    14   ar
    16    16    15   ar
    17    17    16   ar
    18    18    17   ar
    19    19    18   ar
    20    19    14   ar
    21    11    20    1
    22    21    20    1
    23    22    21   ar
    24    23    22   ar
    25    24    23   ar
    26    25    24   ar
    27    26    21   ar
    28    26    25   ar
    29    27     7    1
    30    28    27   ar
    31    29    28   ar
    32    30    29   ar
    33    31    30   ar
    34    32    27   ar
    35    32    31   ar
    36    33    29    1
    37    34    33    2
    38    35    33   am
    39    37    36   ar
    40    37    35    1
    41    38    36   ar
    42    39    37   ar
    43    40    39   ar
    44    40    38   ar
    45    41    12    1
    46    42    41   ar
    47    43    42   ar
    48    44    43   ar
    49    45    44   ar
    50    46    45   ar
    51    46    41   ar
    52    47    43    1
    53    48    47    2
    54    49    47   am
    55    51    49    1
    56    51    50   ar
    57    52    50   ar
    58    53    51   ar
    59    54    53   ar
    60    54    52   ar
