@<TRIPOS>MOLECULE
1BV9_XV6_A638
 54 60 0 0 0
SMALL
GASTEIGER

@<TRIPOS>ATOM
      1 O          -8.3520   14.3790   27.7110 O.2     1  UNL1       -0.2523
      2 O         -11.8770   18.6890   28.9200 O.3     1  UNL1       -0.2186
      3 O         -10.2990   19.6430   26.8080 O.3     1  UNL1       -0.2186
      4 N          -9.8410   15.6070   28.7540 N.am    1  UNL1       -0.2586
      5 N          -8.8700   16.2430   26.6840 N.am    1  UNL1       -0.2586
      6 C          -9.0230   15.3940   27.7060 C.2     1  UNL1        0.3077
      7 C          -9.6220   14.7610   29.9520 C.3     1  UNL1        0.1217
      8 C         -10.9840   16.5580   28.8020 C.3     1  UNL1        0.1144
      9 C         -10.7210   18.0260   28.5150 C.3     1  UNL1        0.2021
     10 C         -10.4070   18.2690   27.0580 C.3     1  UNL1        0.2021
     11 C          -9.0250   17.7210   26.7960 C.3     1  UNL1        0.1144
     12 C          -8.2390   15.6950   25.4750 C.3     1  UNL1        0.1217
     13 C         -12.1910   15.9370   28.0740 C.3     1  UNL1        0.0489
     14 C         -12.6790   14.6620   28.7300 C.ar    1  UNL1       -0.0204
     15 C         -12.2680   13.4090   28.2200 C.ar    1  UNL1       -0.0042
     16 C         -12.6900   12.2310   28.8610 C.ar    1  UNL1       -0.0003
     17 C         -13.5150   12.3180   30.0030 C.ar    1  UNL1       -0.0000
     18 C         -13.9280   13.5620   30.5090 C.ar    1  UNL1       -0.0003
     19 C         -13.5050   14.7360   29.8670 C.ar    1  UNL1       -0.0042
     20 C          -7.9410   18.2960   27.7460 C.3     1  UNL1        0.0489
     21 C          -6.5400   18.1020   27.2000 C.ar    1  UNL1       -0.0204
     22 C          -6.1610   18.7470   25.9910 C.ar    1  UNL1       -0.0042
     23 C          -4.8780   18.5310   25.4490 C.ar    1  UNL1       -0.0003
     24 C          -3.9790   17.6630   26.1280 C.ar    1  UNL1       -0.0000
     25 C          -4.3580   17.0250   27.3410 C.ar    1  UNL1       -0.0003
     26 C          -5.6430   17.2470   27.8740 C.ar    1  UNL1       -0.0042
     27 C          -9.5110   15.5200   31.2500 C.ar    1  UNL1       -0.0021
     28 C         -10.2250   15.0470   32.3610 C.ar    1  UNL1        0.0020
     29 C         -10.1720   15.7620   33.5770 C.ar    1  UNL1        0.0552
     30 C          -9.4070   16.9460   33.6800 C.ar    1  UNL1        0.0046
     31 C          -8.6850   17.4250   32.5620 C.ar    1  UNL1       -0.0001
     32 C          -8.7340   16.7030   31.3480 C.ar    1  UNL1       -0.0026
     33 C         -10.8860   15.2470   34.7870 C.2     1  UNL1        0.2707
     34 O         -11.2880   15.9700   35.6870 O.2     1  UNL1       -0.2679
     35 N         -11.0140   13.9040   34.8300 N.am    1  UNL1       -0.1505
     36 N         -11.4880   11.9060   36.2460 N.ar    1  UNL1       -0.2209
     37 C         -11.5710   13.2170   36.0020 C.ar    1  UNL1        0.1861
     38 C         -12.0510   11.5430   37.4500 C.ar    1  UNL1        0.1079
     39 S         -12.3610   13.9760   37.2780 S.2     1  UNL1       -0.0491
     40 C         -12.6090   12.5870   38.1990 C.ar    1  UNL1        0.0588
     41 C          -8.8940   15.9940   24.1670 C.ar    1  UNL1       -0.0021
     42 C          -8.0730   16.2790   23.0780 C.ar    1  UNL1        0.0020
     43 C          -8.6470   16.6250   21.8420 C.ar    1  UNL1        0.0552
     44 C         -10.0460   16.6750   21.7000 C.ar    1  UNL1        0.0046
     45 C         -10.8920   16.3680   22.7900 C.ar    1  UNL1       -0.0001
     46 C         -10.3050   16.0270   24.0260 C.ar    1  UNL1       -0.0026
     47 C          -7.7770   16.9700   20.6860 C.2     1  UNL1        0.2707
     48 O          -8.1080   17.7660   19.8300 O.2     1  UNL1       -0.2679
     49 N          -6.5820   16.3550   20.6630 N.am    1  UNL1       -0.1505
     50 N          -4.3280   16.0900   19.6060 N.ar    1  UNL1       -0.2209
     51 C          -5.5810   16.5890   19.6010 C.ar    1  UNL1        0.1861
     52 C          -3.6140   16.4290   18.4770 C.ar    1  UNL1        0.1079
     53 S          -5.8420   17.4880   18.1810 S.2     1  UNL1       -0.0491
     54 C          -4.3040   17.2250   17.5310 C.ar    1  UNL1        0.0588
@<TRIPOS>BOND
     1     6     5   am
     2     6     4   am
     3     6     1    2
     4     7     4    1
     5     8     4    1
     6     9     8    1
     7     9     2    1
     8    10     3    1
     9    10     9    1
    10    11     5    1
    11    11    10    1
    12    12     5    1
    13     8    13    1
    14    14    13    1
    15    15    14   ar
    16    16    15   ar
    17    17    16   ar
    18    18    17   ar
    19    19    18   ar
    20    19    14   ar
    21    11    20    1
    22    21    20    1
    23    22    21   ar
    24    23    22   ar
    25    24    23   ar
    26    25    24   ar
    27    26    21   ar
    28    26    25   ar
    29    27     7    1
    30    28    27   ar
    31    29    28   ar
    32    30    29   ar
    33    31    30   ar
    34    32    27   ar
    35    32    31   ar
    36    33    29    1
    37    34    33    2
    38    35    33   am
    39    37    36   ar
    40    37    35    1
    41    38    36   ar
    42    39    37   ar
    43    40    39   ar
    44    40    38   ar
    45    41    12    1
    46    42    41   ar
    47    43    42   ar
    48    44    43   ar
    49    45    44   ar
    50    46    41   ar
    51    46    45   ar
    52    47    43    1
    53    48    47    2
    54    49    47   am
    55    51    49    1
    56    51    50   ar
    57    52    50   ar
    58    53    51   ar
    59    54    53   ar
    60    54    52   ar
