@<TRIPOS>MOLECULE
1HIV_1ZK_A100
 59 63 0 0 0
SMALL
GASTEIGER

@<TRIPOS>ATOM
      1 C         -12.6940   14.8050   32.9910 C.2     1  UNL1        0.2863
      2 C         -13.7950   13.7790   33.0840 C.3     1  UNL1        0.2911
      3 C         -14.1510   11.4430   32.5140 C.ar    1  UNL1        0.1392
      4 C         -15.4640   11.5110   32.8480 C.ar    1  UNL1        0.0369
      5 C         -16.3260   10.4170   32.6270 C.ar    1  UNL1        0.0031
      6 C         -15.8630    9.2610   32.0810 C.ar    1  UNL1        0.0002
      7 C         -14.5060    9.1070   31.7770 C.ar    1  UNL1        0.0029
      8 C         -14.0250    7.9060   31.2040 C.ar    1  UNL1        0.0001
      9 C         -12.7020    7.8340   30.8920 C.ar    1  UNL1        0.0000
     10 C         -11.8340    8.9200   31.1160 C.ar    1  UNL1        0.0001
     11 C         -12.2790   10.0910   31.6310 C.ar    1  UNL1        0.0030
     12 C         -13.6230   10.2380   31.9990 C.ar    1  UNL1        0.0340
     13 O         -12.8920   15.8380   33.6160 O.2     1  UNL1       -0.2693
     14 O         -13.3520   12.5160   32.7150 O.3     1  UNL1       -0.4656
     15 N         -11.5490   14.5170   32.3920 N.am    1  UNL1       -0.1941
     16 C         -10.4410   15.4090   32.1810 C.3     1  UNL1        0.1811
     17 C         -10.1000   15.3610   30.6920 C.2     1  UNL1        0.2617
     18 O          -9.2890   14.6000   30.1970 O.2     1  UNL1       -0.2715
     19 C          -9.2070   15.1730   32.9990 C.3     1  UNL1        0.1089
     20 C          -9.6510   15.1970   34.4430 C.ar    1  UNL1        0.2198
     21 N         -10.3460   14.0630   34.8940 N.ar    1  UNL1       -0.0280
     22 C          -9.5630   16.0590   35.4660 C.ar    1  UNL1        0.2779
     23 C         -10.6860   14.2550   36.1650 C.ar    1  UNL1        0.4653
     24 N         -10.1840   15.4230   36.5870 N.ar    1  UNL1       -0.0199
     25 N         -10.9600   16.0730   29.9370 N.am    1  UNL1       -0.2030
     26 C         -10.9890   16.1380   28.5030 C.3     1  UNL1        0.1282
     27 C         -12.4040   15.8000   28.0410 C.3     1  UNL1        0.0244
     28 C         -12.9310   14.4400   28.5920 C.3     1  UNL1        0.0018
     29 C         -12.3030   13.2450   27.7750 C.3     1  UNL1        0.0001
     30 C         -14.4490   14.3740   28.5350 C.3     1  UNL1        0.0001
     31 C         -12.8050   11.9630   28.4940 C.3     1  UNL1        0.0000
     32 C         -15.0290   13.0030   28.9660 C.3     1  UNL1        0.0000
     33 C         -14.3060   11.8240   28.3100 C.3     1  UNL1        0.0000
     34 C         -10.4640   17.4190   27.8910 C.3     1  UNL1        0.2023
     35 O         -11.0360   18.6670   28.2200 O.3     1  UNL1       -0.2186
     36 C          -8.9550   17.6010   28.2330 C.3     1  UNL1        0.1924
     37 C          -8.0280   18.2620   27.1950 C.3     1  UNL1        0.1111
     38 C          -6.7020   18.7110   27.7620 C.3     1  UNL1        0.0112
     39 C          -5.8750   17.5740   28.4420 C.3     1  UNL1        0.0006
     40 C          -5.8440   19.4360   26.6710 C.3     1  UNL1        0.0006
     41 O          -8.8460   18.1130   29.4820 O.3     1  UNL1       -0.2198
     42 C          -7.8930   17.3370   25.9920 C.2     1  UNL1        0.2439
     43 O          -7.6040   16.1400   26.1470 O.2     1  UNL1       -0.2733
     44 N          -8.1740   17.8560   24.7890 N.am    1  UNL1       -0.1977
     45 C          -8.0400   17.1510   23.5340 C.3     1  UNL1        0.1726
     46 C          -7.0140   18.0510   22.7660 C.2     1  UNL1        0.2616
     47 O          -7.3160   19.1800   22.4100 O.2     1  UNL1       -0.2715
     48 C          -9.2570   16.9420   22.6820 C.3     1  UNL1        0.0290
     49 C         -10.5330   16.2840   23.2770 C.3     1  UNL1        0.0022
     50 C          -8.8930   16.0660   21.4690 C.3     1  UNL1        0.0023
     51 C         -10.1320   15.0700   24.0690 C.3     1  UNL1        0.0001
     52 N          -5.7900   17.6350   22.5840 N.am    1  UNL1       -0.1975
     53 C          -4.7120   18.2220   21.8800 C.3     1  UNL1        0.1605
     54 C          -3.6720   18.7520   22.8020 C.ar    1  UNL1        0.0809
     55 C          -3.9280   20.0070   23.3540 C.ar    1  UNL1        0.0165
     56 C          -3.0290   20.6130   24.2210 C.ar    1  UNL1        0.0029
     57 C          -1.8760   19.8930   24.5280 C.ar    1  UNL1        0.0207
     58 C          -1.6560   18.6330   23.9690 C.ar    1  UNL1        0.0985
     59 N          -2.5400   18.0740   23.1150 N.ar    1  UNL1       -0.2464
@<TRIPOS>UNITY_ATOM_ATTR
21 1
charge 1
@<TRIPOS>BOND
     1     2     1    1
     2     4     3   ar
     3     5     4   ar
     4     6     5   ar
     5     7     6   ar
     6     8     7   ar
     7     9     8   ar
     8    10     9   ar
     9    11    10   ar
    10    12    11   ar
    11    12     7   ar
    12    12     3   ar
    13    13     1    2
    14    14     3    1
    15    14     2    1
    16    15     1   am
    17    16    15    1
    18    17    16    1
    19    18    17    2
    20    16    19    1
    21    20    19    1
    22    21    20   ar
    23    22    20   ar
    24    23    21   ar
    25    24    23   ar
    26    24    22   ar
    27    25    17   am
    28    26    25    1
    29    26    27    1
    30    28    27    1
    31    29    28    1
    32    30    28    1
    33    31    29    1
    34    32    30    1
    35    33    32    1
    36    33    31    1
    37    34    26    1
    38    34    35    1
    39    36    34    1
    40    37    36    1
    41    38    37    1
    42    38    39    1
    43    40    38    1
    44    36    41    1
    45    37    42    1
    46    43    42    2
    47    44    42   am
    48    45    44    1
    49    46    45    1
    50    47    46    2
    51    48    45    1
    52    49    48    1
    53    48    50    1
    54    51    49    1
    55    52    46   am
    56    53    52    1
    57    54    53    1
    58    55    54   ar
    59    56    55   ar
    60    57    56   ar
    61    58    57   ar
    62    59    58   ar
    63    59    54   ar
