@<TRIPOS>MOLECULE
1HIV_1ZK_A100
 59 63 0 0 0
SMALL
GASTEIGER

@<TRIPOS>ATOM
      1 C         -12.7080   14.8130   32.9440 C.2     1  UNL1        0.2863
      2 C         -13.8090   13.7860   33.0280 C.3     1  UNL1        0.2911
      3 C         -14.1610   11.4530   32.4430 C.ar    1  UNL1        0.1392
      4 C         -15.4750   11.5180   32.7730 C.ar    1  UNL1        0.0369
      5 C         -16.3350   10.4240   32.5430 C.ar    1  UNL1        0.0031
      6 C         -15.8700    9.2730   31.9920 C.ar    1  UNL1        0.0002
      7 C         -14.5120    9.1210   31.6910 C.ar    1  UNL1        0.0029
      8 C         -14.0280    7.9240   31.1130 C.ar    1  UNL1        0.0001
      9 C         -12.7030    7.8550   30.8060 C.ar    1  UNL1        0.0000
     10 C         -11.8380    8.9400   31.0380 C.ar    1  UNL1        0.0001
     11 C         -12.2850   10.1080   31.5590 C.ar    1  UNL1        0.0030
     12 C         -13.6300   10.2510   31.9230 C.ar    1  UNL1        0.0340
     13 O         -12.9090   15.8430   33.5740 O.2     1  UNL1       -0.2693
     14 O         -13.3630   12.5250   32.6520 O.3     1  UNL1       -0.4656
     15 N         -11.5610   14.5300   32.3470 N.am    1  UNL1       -0.1941
     16 C         -10.4530   15.4230   32.1450 C.3     1  UNL1        0.1811
     17 C         -10.1070   15.3850   30.6570 C.2     1  UNL1        0.2617
     18 O          -9.2940   14.6270   30.1600 O.2     1  UNL1       -0.2715
     19 C          -9.2220   15.1840   32.9660 C.3     1  UNL1        0.1089
     20 C          -9.6700   15.1990   34.4080 C.ar    1  UNL1        0.2198
     21 N         -10.3660   14.0620   34.8510 N.ar    1  UNL1       -0.0280
     22 C          -9.5870   16.0560   35.4360 C.ar    1  UNL1        0.2779
     23 C         -10.7100   14.2470   36.1220 C.ar    1  UNL1        0.4653
     24 N         -10.2110   15.4120   36.5520 N.ar    1  UNL1       -0.0199
     25 N         -10.9650   16.1000   29.9030 N.am    1  UNL1       -0.2030
     26 C         -10.9890   16.1730   28.4690 C.3     1  UNL1        0.1282
     27 C         -12.4020   15.8370   28.0000 C.3     1  UNL1        0.0244
     28 C         -12.9300   14.4730   28.5420 C.3     1  UNL1        0.0018
     29 C         -12.2980   13.2840   27.7200 C.3     1  UNL1        0.0001
     30 C         -14.4480   14.4060   28.4800 C.3     1  UNL1        0.0001
     31 C         -12.8010   11.9970   28.4300 C.3     1  UNL1        0.0000
     32 C         -15.0280   13.0330   28.9000 C.3     1  UNL1        0.0000
     33 C         -14.3020   11.8580   28.2410 C.3     1  UNL1        0.0000
     34 C         -10.4630   17.4590   27.8670 C.3     1  UNL1        0.2023
     35 O         -11.0370   18.7040   28.2010 O.3     1  UNL1       -0.2186
     36 C          -8.9550   17.6390   28.2150 C.3     1  UNL1        0.1924
     37 C          -8.0260   18.3060   27.1830 C.3     1  UNL1        0.1111
     38 C          -6.7020   18.7540   27.7570 C.3     1  UNL1        0.0112
     39 C          -5.8760   17.6130   28.4340 C.3     1  UNL1        0.0006
     40 C          -5.8410   19.4850   26.6740 C.3     1  UNL1        0.0006
     41 O          -8.8510   18.1440   29.4670 O.3     1  UNL1       -0.2198
     42 C          -7.8860   17.3890   25.9760 C.2     1  UNL1        0.2439
     43 O          -7.5960   16.1910   26.1250 O.2     1  UNL1       -0.2733
     44 N          -8.1630   17.9150   24.7740 N.am    1  UNL1       -0.1977
     45 C          -8.0240   17.2170   23.5160 C.3     1  UNL1        0.1726
     46 C          -6.9960   18.1220   22.7570 C.2     1  UNL1        0.2616
     47 O          -7.2980   19.2530   22.4060 O.2     1  UNL1       -0.2715
     48 C          -9.2380   17.0110   22.6590 C.3     1  UNL1        0.0290
     49 C         -10.5160   16.3490   23.2460 C.3     1  UNL1        0.0022
     50 C          -8.8690   16.1430   21.4420 C.3     1  UNL1        0.0023
     51 C         -10.1160   15.1310   24.0320 C.3     1  UNL1        0.0001
     52 N          -5.7710   17.7080   22.5770 N.am    1  UNL1       -0.1975
     53 C          -4.6910   18.2990   21.8800 C.3     1  UNL1        0.1605
     54 C          -3.6550   18.8260   22.8080 C.ar    1  UNL1        0.0809
     55 C          -3.9140   20.0770   23.3660 C.ar    1  UNL1        0.0165
     56 C          -3.0180   20.6790   24.2400 C.ar    1  UNL1        0.0029
     57 C          -1.8650   19.9570   24.5470 C.ar    1  UNL1        0.0207
     58 C          -1.6430   18.7010   23.9820 C.ar    1  UNL1        0.0985
     59 N          -2.5230   18.1470   23.1210 N.ar    1  UNL1       -0.2464
@<TRIPOS>UNITY_ATOM_ATTR
21 1
charge 1
@<TRIPOS>BOND
     1     2     1    1
     2     4     3   ar
     3     5     4   ar
     4     6     5   ar
     5     7     6   ar
     6     8     7   ar
     7     9     8   ar
     8    10     9   ar
     9    11    10   ar
    10    12    11   ar
    11    12     7   ar
    12    12     3   ar
    13    13     1    2
    14    14     3    1
    15    14     2    1
    16    15     1   am
    17    16    15    1
    18    17    16    1
    19    18    17    2
    20    16    19    1
    21    20    19    1
    22    21    20   ar
    23    22    20   ar
    24    23    21   ar
    25    24    23   ar
    26    24    22   ar
    27    25    17   am
    28    26    25    1
    29    26    27    1
    30    28    27    1
    31    29    28    1
    32    30    28    1
    33    31    29    1
    34    32    30    1
    35    33    32    1
    36    33    31    1
    37    34    26    1
    38    34    35    1
    39    36    34    1
    40    37    36    1
    41    38    37    1
    42    38    39    1
    43    40    38    1
    44    36    41    1
    45    37    42    1
    46    43    42    2
    47    44    42   am
    48    45    44    1
    49    46    45    1
    50    47    46    2
    51    48    45    1
    52    49    48    1
    53    48    50    1
    54    51    49    1
    55    52    46   am
    56    53    52    1
    57    54    53    1
    58    55    54   ar
    59    56    55   ar
    60    57    56   ar
    61    58    57   ar
    62    59    58   ar
    63    59    54   ar
