@<TRIPOS>MOLECULE
1HVH_Q82_B265
 44 48 0 0 0
SMALL
GASTEIGER

@<TRIPOS>ATOM
      1 N          -7.7980   14.5820   28.1960 N.2     1  UNL1        0.0067
      2 O         -11.2900   18.9500   28.9810 O.3     1  UNL1       -0.2169
      3 O          -9.4340   19.6390   27.0990 O.3     1  UNL1       -0.2169
      4 N          -8.9580   16.0500   26.8760 N.pl3   1  UNL1       -0.1933
      5 N          -9.5610   15.6670   29.0970 N.pl3   1  UNL1       -0.1933
      6 C          -8.7530   15.4270   28.0480 C.cat   1  UNL1        0.3887
      7 C          -9.4890   14.8180   30.2950 C.3     1  UNL1        0.1942
      8 C         -10.6470   16.6430   29.0240 C.3     1  UNL1        0.1711
      9 C         -10.2280   18.0780   28.6830 C.3     1  UNL1        0.2193
     10 C          -9.8520   18.3040   27.2280 C.3     1  UNL1        0.2193
     11 C          -8.6690   17.4680   26.7890 C.3     1  UNL1        0.1711
     12 C          -9.4170   15.3680   25.6550 C.3     1  UNL1        0.1942
     13 C          -9.7570   15.5400   31.6000 C.ar    1  UNL1        0.0149
     14 C          -8.8710   16.5120   32.0530 C.ar    1  UNL1       -0.0014
     15 C          -9.0110   17.0390   33.3330 C.ar    1  UNL1       -0.0020
     16 C         -10.1000   16.5470   34.2070 C.ar    1  UNL1        0.0106
     17 C         -10.9640   15.5770   33.7130 C.ar    1  UNL1       -0.0020
     18 C         -10.7740   15.0760   32.4360 C.ar    1  UNL1       -0.0014
     19 C         -11.7080   16.0020   28.1150 C.3     1  UNL1        0.0662
     20 C         -12.3600   14.7970   28.7620 C.ar    1  UNL1       -0.0189
     21 C         -12.1200   13.4800   28.3820 C.ar    1  UNL1       -0.0042
     22 C         -12.7570   12.3540   28.8890 C.ar    1  UNL1       -0.0003
     23 C         -13.7300   12.5380   29.8560 C.ar    1  UNL1       -0.0000
     24 C         -14.0080   13.8370   30.2690 C.ar    1  UNL1       -0.0003
     25 C         -13.3440   14.9520   29.7430 C.ar    1  UNL1       -0.0042
     26 C          -7.4230   17.7130   27.6450 C.3     1  UNL1        0.0662
     27 C          -6.2510   18.1750   26.8140 C.ar    1  UNL1       -0.0189
     28 C          -6.4440   19.1530   25.8460 C.ar    1  UNL1       -0.0042
     29 C          -5.5140   19.3100   24.8220 C.ar    1  UNL1       -0.0003
     30 C          -4.3870   18.4960   24.7760 C.ar    1  UNL1       -0.0000
     31 C          -4.1890   17.5150   25.7410 C.ar    1  UNL1       -0.0003
     32 C          -5.1210   17.3580   26.7630 C.ar    1  UNL1       -0.0042
     33 C          -8.8480   15.8810   24.3310 C.ar    1  UNL1        0.0149
     34 C          -7.5990   16.1930   24.1420 C.ar    1  UNL1       -0.0014
     35 C          -7.0690   16.6560   22.9400 C.ar    1  UNL1       -0.0020
     36 C          -7.9650   16.8060   21.7800 C.ar    1  UNL1        0.0106
     37 C          -9.2940   16.4730   21.9990 C.ar    1  UNL1       -0.0020
     38 C          -9.7240   16.0130   23.2460 C.ar    1  UNL1       -0.0014
     39 C          -7.2150   14.0350   27.1790 C.1     1  UNL1        0.2951
     40 N          -6.7000   13.5270   26.2600 N.1     1  UNL1       -0.1505
     41 C          -7.4830   17.3030   20.4480 C.3     1  UNL1        0.2086
     42 C         -10.2810   17.0920   35.5960 C.3     1  UNL1        0.2086
     43 O          -6.0740   17.2130   20.2920 O.3     1  UNL1       -0.2152
     44 O         -11.2990   16.4250   36.3330 O.3     1  UNL1       -0.2152
@<TRIPOS>BOND
     1     6     4    1
     2     6     5    1
     3     6     1    2
     4     7     5    1
     5     8     5    1
     6     9     2    1
     7     9     8    1
     8    10     3    1
     9    10     9    1
    10    11     4    1
    11    11    10    1
    12    12     4    1
    13    13     7    1
    14    14    13   ar
    15    15    14   ar
    16    16    15   ar
    17    17    16   ar
    18    18    17   ar
    19    18    13   ar
    20     8    19    1
    21    20    19    1
    22    21    20   ar
    23    22    21   ar
    24    23    22   ar
    25    24    23   ar
    26    25    24   ar
    27    25    20   ar
    28    11    26    1
    29    27    26    1
    30    28    27   ar
    31    29    28   ar
    32    30    29   ar
    33    31    30   ar
    34    32    27   ar
    35    32    31   ar
    36    33    12    1
    37    34    33   ar
    38    35    34   ar
    39    36    35   ar
    40    37    36   ar
    41    38    33   ar
    42    38    37   ar
    43    39     1    1
    44    40    39    3
    45    41    36    1
    46    42    16    1
    47    43    41    1
    48    44    42    1
