@<TRIPOS>MOLECULE
1HXB_ROC_A100
 49 53 0 0 0
SMALL
GASTEIGER

@<TRIPOS>ATOM
      1 C         -12.6870   14.8240   32.8710 C.2     1  UNL1        0.2829
      2 O         -13.1150   15.8980   33.3060 O.2     1  UNL1       -0.2667
      3 N         -12.7240   12.4870   32.5030 N.ar    1  UNL1       -0.2407
      4 C         -13.3900   13.6150   32.8650 C.ar    1  UNL1        0.1361
      5 C         -14.7600   13.5420   33.1430 C.ar    1  UNL1        0.0238
      6 C         -15.4120   12.3120   33.0270 C.ar    1  UNL1        0.0032
      7 C         -15.3080    9.9440   32.5110 C.ar    1  UNL1        0.0015
      8 C         -14.5470    8.8360   32.1170 C.ar    1  UNL1        0.0001
      9 C         -13.1770    8.9560   31.8550 C.ar    1  UNL1        0.0015
     10 C         -12.5520   10.1920   31.9850 C.ar    1  UNL1        0.0191
     11 C         -14.6830   11.1830   32.6420 C.ar    1  UNL1        0.0177
     12 C         -13.3100   11.2910   32.3800 C.ar    1  UNL1        0.0814
     13 N         -11.4660   14.6730   32.3520 N.am    1  UNL1       -0.1922
     14 C         -10.5620   15.7760   32.1060 C.3     1  UNL1        0.1822
     15 C         -10.1370   15.8510   30.6490 C.2     1  UNL1        0.2618
     16 O          -9.0650   15.4160   30.2090 O.2     1  UNL1       -0.2715
     17 C          -9.3470   15.6420   32.9740 C.3     1  UNL1        0.1195
     18 C          -9.7950   15.8560   34.3990 C.2     1  UNL1        0.2630
     19 O         -10.4930   16.8010   34.7340 O.2     1  UNL1       -0.2716
     20 N          -9.5160   14.9870   35.3360 N.am    1  UNL1       -0.0877
     21 C         -10.2640   18.0440   28.2250 C.3     1  UNL1        0.1879
     22 O         -11.4300   18.8560   28.2970 O.3     1  UNL1       -0.2198
     23 C         -10.7220   16.5840   28.4230 C.3     1  UNL1        0.1313
     24 N         -11.0280   16.4160   29.8350 N.am    1  UNL1       -0.2027
     25 C         -11.9720   16.2280   27.6040 C.3     1  UNL1        0.0506
     26 C         -12.5990   14.9350   28.0670 C.ar    1  UNL1       -0.0204
     27 C         -11.9690   13.7260   27.7920 C.ar    1  UNL1       -0.0042
     28 C         -13.7800   14.9820   28.8060 C.ar    1  UNL1       -0.0042
     29 C         -12.5330   12.5470   28.2660 C.ar    1  UNL1       -0.0003
     30 C         -14.3270   13.8010   29.2710 C.ar    1  UNL1       -0.0003
     31 C         -13.7040   12.5860   29.0040 C.ar    1  UNL1       -0.0000
     32 N          -8.0910   17.9640   27.0110 N.3     1  UNL1       -0.2643
     33 C          -9.4990   18.3470   26.9320 C.3     1  UNL1        0.1075
     34 C          -7.4830   17.7000   25.6970 C.3     1  UNL1        0.1365
     35 C          -8.0970   16.5880   24.8560 C.2     1  UNL1        0.2558
     36 O          -8.2650   15.4750   25.3550 O.2     1  UNL1       -0.2719
     37 C          -6.0050   17.3590   25.8520 C.3     1  UNL1        0.0254
     38 C          -5.2610   18.4870   26.5230 C.3     1  UNL1        0.0032
     39 C          -3.8120   18.0800   26.7100 C.3     1  UNL1        0.0001
     40 C          -3.6250   17.0430   27.8080 C.3     1  UNL1        0.0000
     41 C          -4.1820   17.5420   29.1280 C.3     1  UNL1        0.0000
     42 C          -5.6690   17.7330   28.9310 C.3     1  UNL1        0.0014
     43 C          -5.9270   18.8260   27.9070 C.3     1  UNL1        0.0161
     44 C          -7.4150   19.0600   27.6950 C.3     1  UNL1        0.0725
     45 N          -8.3880   16.9690   23.6120 N.am    1  UNL1       -0.2077
     46 C          -9.0270   16.1420   22.6060 C.3     1  UNL1        0.0788
     47 C          -9.1620   17.0110   21.3830 C.3     1  UNL1        0.0217
     48 C          -8.1540   14.9770   22.2250 C.3     1  UNL1        0.0217
     49 C         -10.4170   15.6740   23.0420 C.3     1  UNL1        0.0217
@<TRIPOS>BOND
     1     2     1    2
     2     4     3   ar
     3     4     1    1
     4     5     4   ar
     5     6     5   ar
     6     8     7   ar
     7     9     8   ar
     8    10     9   ar
     9    11     7   ar
    10    11     6   ar
    11    12    10   ar
    12    12    11   ar
    13    12     3   ar
    14    13     1   am
    15    14    13    1
    16    15    14    1
    17    16    15    2
    18    14    17    1
    19    18    17    1
    20    19    18    2
    21    20    18   am
    22    21    22    1
    23    23    21    1
    24    24    15   am
    25    24    23    1
    26    23    25    1
    27    26    25    1
    28    27    26   ar
    29    28    26   ar
    30    29    27   ar
    31    30    28   ar
    32    31    30   ar
    33    31    29   ar
    34    33    32    1
    35    33    21    1
    36    34    32    1
    37    34    35    1
    38    36    35    2
    39    37    34    1
    40    38    37    1
    41    39    38    1
    42    40    39    1
    43    41    40    1
    44    42    41    1
    45    43    42    1
    46    43    38    1
    47    44    32    1
    48    44    43    1
    49    45    35   am
    50    46    45    1
    51    46    47    1
    52    48    46    1
    53    49    46    1
