@<TRIPOS>MOLECULE
1ODW_0E8_A201
 39 40 0 0 0
SMALL
GASTEIGER

@<TRIPOS>ATOM
      1 O          -8.0870   15.6750   25.2830 O.2     1  UNL1       -0.2246
      2 C          -8.0890   16.7960   24.7590 C.2     1  UNL1        0.4209
      3 O          -8.3690   17.0210   23.3610 O.3     1  UNL1       -0.4408
      4 C          -8.8410   15.9380   22.5280 C.3     1  UNL1        0.1379
      5 C          -9.1610   16.4970   21.1240 C.3     1  UNL1        0.0437
      6 C          -7.9560   14.7200   22.4270 C.3     1  UNL1        0.0437
      7 C         -10.1980   15.4410   23.1130 C.3     1  UNL1        0.0437
      8 C          -8.5650   18.7460   27.4430 C.3     1  UNL1        0.1895
      9 O          -8.2390   18.5350   28.7780 O.3     1  UNL1       -0.2197
     10 C          -7.3930   18.1310   26.6430 C.3     1  UNL1        0.1347
     11 N          -7.7590   17.9600   25.2780 N.am    1  UNL1       -0.1675
     12 C          -6.1940   19.0570   26.8010 C.3     1  UNL1        0.0508
     13 C          -4.9480   18.2470   26.4200 C.ar    1  UNL1       -0.0204
     14 C          -4.5670   18.2810   25.0670 C.ar    1  UNL1       -0.0042
     15 C          -4.2750   17.5220   27.4110 C.ar    1  UNL1       -0.0042
     16 C          -3.4510   17.4910   24.7070 C.ar    1  UNL1       -0.0003
     17 C          -3.1420   16.7730   27.0030 C.ar    1  UNL1       -0.0003
     18 C          -2.7630   16.7390   25.6740 C.ar    1  UNL1       -0.0000
     19 N         -10.9490   18.6780   27.9060 N.3     1  UNL1       -0.2126
     20 C          -9.8940   18.1960   27.0100 C.3     1  UNL1        0.1234
     21 C         -11.1400   17.6030   28.9110 C.3     1  UNL1        0.1234
     22 C         -12.3530   16.6920   28.5330 C.3     1  UNL1        0.1895
     23 O         -12.2470   16.4790   27.1460 O.3     1  UNL1       -0.2197
     24 C         -12.3100   15.3940   29.3480 C.3     1  UNL1        0.1347
     25 N         -11.8640   15.6370   30.7200 N.am    1  UNL1       -0.1675
     26 C         -13.6860   14.6780   29.2500 C.3     1  UNL1        0.0508
     27 C         -13.6190   13.2470   29.7620 C.ar    1  UNL1       -0.0204
     28 C         -14.3930   12.8290   30.8290 C.ar    1  UNL1       -0.0042
     29 C         -12.7830   12.3150   29.1360 C.ar    1  UNL1       -0.0042
     30 C         -14.2870   11.5050   31.3280 C.ar    1  UNL1       -0.0003
     31 C         -12.6460   11.0020   29.6130 C.ar    1  UNL1       -0.0003
     32 C         -13.4020   10.6160   30.7290 C.ar    1  UNL1       -0.0000
     33 O          -9.6910   15.0100   30.5450 O.2     1  UNL1       -0.2246
     34 C         -10.6280   15.4410   31.1730 C.2     1  UNL1        0.4209
     35 O         -10.5600   15.8590   32.4900 O.3     1  UNL1       -0.4408
     36 C          -9.2970   15.9660   33.1860 C.3     1  UNL1        0.1379
     37 C          -8.3340   16.9380   32.5130 C.3     1  UNL1        0.0437
     38 C          -8.6500   14.5770   33.2500 C.3     1  UNL1        0.0437
     39 C          -9.6550   16.4250   34.5840 C.3     1  UNL1        0.0437
@<TRIPOS>BOND
     1     2     1    2
     2     3     2    1
     3     4     3    1
     4     4     5    1
     5     6     4    1
     6     7     4    1
     7     8     9    1
     8    10     8    1
     9    11    10    1
    10    11     2   am
    11    10    12    1
    12    13    12    1
    13    14    13   ar
    14    15    13   ar
    15    16    14   ar
    16    17    15   ar
    17    18    17   ar
    18    18    16   ar
    19    20    19    1
    20    20     8    1
    21    21    19    1
    22    22    21    1
    23    22    23    1
    24    24    22    1
    25    25    24    1
    26    24    26    1
    27    27    26    1
    28    28    27   ar
    29    29    27   ar
    30    30    28   ar
    31    31    29   ar
    32    32    31   ar
    33    32    30   ar
    34    34    25   am
    35    34    33    2
    36    35    34    1
    37    36    35    1
    38    36    37    1
    39    38    36    1
    40    39    36    1
