@<TRIPOS>MOLECULE
1QBS_DMP_A323
 42 46 0 0 0
SMALL
GASTEIGER

@<TRIPOS>ATOM
      1 C          -8.8640   15.3040   27.7840 C.2     1  UNL1        0.3077
      2 C          -8.8050   17.6240   26.8720 C.3     1  UNL1        0.1144
      3 C         -10.1880   18.1580   27.1040 C.3     1  UNL1        0.2021
      4 C         -10.6400   17.8890   28.5170 C.3     1  UNL1        0.2021
      5 C         -10.9040   16.4160   28.7730 C.3     1  UNL1        0.1144
      6 C          -7.9470   15.6110   25.6390 C.3     1  UNL1        0.1217
      7 C          -8.4530   16.0050   24.2960 C.ar    1  UNL1       -0.0023
      8 C          -9.8230   16.0380   23.9710 C.ar    1  UNL1       -0.0029
      9 C         -10.2430   16.3400   22.6590 C.ar    1  UNL1       -0.0020
     10 C          -9.2620   16.5920   21.6870 C.ar    1  UNL1        0.0106
     11 C          -7.8970   16.5590   22.0150 C.ar    1  UNL1       -0.0020
     12 C          -7.4880   16.2760   23.3290 C.ar    1  UNL1       -0.0029
     13 C          -9.6640   16.8660   20.2850 C.3     1  UNL1        0.2086
     14 C          -7.7080   18.2030   27.7510 C.3     1  UNL1        0.0489
     15 C          -6.3460   18.0850   27.0950 C.ar    1  UNL1       -0.0204
     16 C          -5.4080   17.1450   27.5770 C.ar    1  UNL1       -0.0042
     17 C          -4.1560   17.0180   26.9550 C.ar    1  UNL1       -0.0003
     18 C          -3.8370   17.8340   25.8540 C.ar    1  UNL1       -0.0000
     19 C          -4.7680   18.7780   25.3640 C.ar    1  UNL1       -0.0003
     20 C          -6.0290   18.8990   25.9920 C.ar    1  UNL1       -0.0042
     21 C         -12.0270   15.7600   27.9400 C.3     1  UNL1        0.0489
     22 C         -12.5710   14.5090   28.5990 C.ar    1  UNL1       -0.0204
     23 C         -13.2910   14.6210   29.8210 C.ar    1  UNL1       -0.0042
     24 C         -13.6290   13.4520   30.5360 C.ar    1  UNL1       -0.0003
     25 C         -13.2730   12.1870   30.0220 C.ar    1  UNL1       -0.0000
     26 C         -12.5900   12.0780   28.7980 C.ar    1  UNL1       -0.0003
     27 C         -12.2380   13.2410   28.0830 C.ar    1  UNL1       -0.0042
     28 C          -9.5440   14.6990   29.9970 C.3     1  UNL1        0.1217
     29 C          -9.6370   15.3160   31.3680 C.ar    1  UNL1       -0.0023
     30 C         -10.3110   14.5770   32.3740 C.ar    1  UNL1       -0.0029
     31 C         -10.3570   15.0780   33.6800 C.ar    1  UNL1       -0.0020
     32 C          -9.7360   16.3090   33.9770 C.ar    1  UNL1        0.0106
     33 C          -9.0750   17.0580   32.9710 C.ar    1  UNL1       -0.0020
     34 C          -9.0280   16.5540   31.6650 C.ar    1  UNL1       -0.0029
     35 C          -9.7270   16.8220   35.3970 C.3     1  UNL1        0.2086
     36 N          -8.6440   16.1670   26.8050 N.am    1  UNL1       -0.2586
     37 N          -9.7270   15.5260   28.7990 N.am    1  UNL1       -0.2586
     38 O          -8.2170   14.2730   27.7460 O.2     1  UNL1       -0.2523
     39 O         -10.0610   19.5110   26.8120 O.3     1  UNL1       -0.2186
     40 O         -11.8280   18.5500   28.8450 O.3     1  UNL1       -0.2186
     41 O          -9.0970   18.1100   19.8980 O.3     1  UNL1       -0.2152
     42 O         -11.0600   16.7910   35.8750 O.3     1  UNL1       -0.2152
@<TRIPOS>BOND
     1     3     2    1
     2     4     3    1
     3     5     4    1
     4     7     6    1
     5     8     7   ar
     6     9     8   ar
     7    10     9   ar
     8    11    10   ar
     9    12     7   ar
    10    12    11   ar
    11    13    10    1
    12     2    14    1
    13    15    14    1
    14    16    15   ar
    15    17    16   ar
    16    18    17   ar
    17    19    18   ar
    18    20    15   ar
    19    20    19   ar
    20     5    21    1
    21    22    21    1
    22    23    22   ar
    23    24    23   ar
    24    25    24   ar
    25    26    25   ar
    26    27    26   ar
    27    27    22   ar
    28    29    28    1
    29    30    29   ar
    30    31    30   ar
    31    32    31   ar
    32    33    32   ar
    33    34    29   ar
    34    34    33   ar
    35    35    32    1
    36    36     6    1
    37    36     1   am
    38    36     2    1
    39    37     5    1
    40    37    28    1
    41    37     1   am
    42    38     1    2
    43     3    39    1
    44     4    40    1
    45    41    13    1
    46    42    35    1
