@<TRIPOS>MOLECULE
1QBU_846_B300
 43 48 0 0 0
SMALL
GASTEIGER

@<TRIPOS>ATOM
      1 C          -9.1180   15.3930   27.8650 C.2     1  UNL1        0.3075
      2 C          -8.1420   15.6480   25.6330 C.3     1  UNL1        0.1217
      3 C          -8.9330   17.6860   26.8470 C.3     1  UNL1        0.1144
      4 C         -10.2950   18.3030   27.1390 C.3     1  UNL1        0.2021
      5 C         -10.6840   18.1470   28.5880 C.3     1  UNL1        0.2021
      6 C         -10.9720   16.6990   28.8980 C.3     1  UNL1        0.1141
      7 C          -9.5470   15.1330   30.2670 C.3     1  UNL1        0.0949
      8 C          -8.6800   15.9930   24.2460 C.ar    1  UNL1       -0.0021
      9 C          -7.8140   16.4570   23.2140 C.ar    1  UNL1        0.0020
     10 C          -8.3310   16.7220   21.9190 C.ar    1  UNL1        0.0552
     11 C          -9.7050   16.5410   21.6790 C.ar    1  UNL1        0.0046
     12 C         -10.5680   16.0860   22.6910 C.ar    1  UNL1       -0.0001
     13 C         -10.0490   15.8120   23.9680 C.ar    1  UNL1       -0.0026
     14 C          -7.4690   17.1260   20.7430 C.2     1  UNL1        0.2707
     15 C          -5.2470   16.7060   19.5900 C.ar    1  UNL1        0.1861
     16 C          -3.3440   16.2780   18.3780 C.ar    1  UNL1        0.1079
     17 C          -3.9160   17.2040   17.4820 C.ar    1  UNL1        0.0588
     18 C          -7.7370   18.2750   27.6170 C.3     1  UNL1        0.0489
     19 C          -6.4830   18.3310   26.7800 C.ar    1  UNL1       -0.0204
     20 C          -5.3660   17.5420   27.1170 C.ar    1  UNL1       -0.0042
     21 C          -4.2050   17.6010   26.3120 C.ar    1  UNL1       -0.0003
     22 C          -4.1720   18.4470   25.1840 C.ar    1  UNL1       -0.0000
     23 C          -5.2880   19.2400   24.8510 C.ar    1  UNL1       -0.0003
     24 C          -6.4450   19.1840   25.6500 C.ar    1  UNL1       -0.0042
     25 C         -12.0880   16.0420   28.0550 C.3     1  UNL1        0.0489
     26 C         -12.6660   14.8040   28.6990 C.ar    1  UNL1       -0.0204
     27 C         -13.5590   14.9440   29.7900 C.ar    1  UNL1       -0.0042
     28 C         -14.0570   13.8050   30.4440 C.ar    1  UNL1       -0.0003
     29 C         -13.6710   12.5240   30.0050 C.ar    1  UNL1       -0.0000
     30 C         -12.7860   12.3840   28.9090 C.ar    1  UNL1       -0.0003
     31 C         -12.2820   13.5270   28.2480 C.ar    1  UNL1       -0.0042
     32 C          -9.8030   16.1080   31.4360 C.3     1  UNL1        0.0199
     33 C          -9.3580   15.5820   32.8080 C.3     1  UNL1        0.0018
     34 C          -8.5100   16.6300   32.0650 C.3     1  UNL1        0.0018
     35 N          -8.8080   16.2160   26.8220 N.am    1  UNL1       -0.2586
     36 N          -9.8110   15.7950   28.9660 N.am    1  UNL1       -0.2627
     37 N          -6.2270   16.6040   20.7090 N.am    1  UNL1       -0.1505
     38 N          -4.0810   16.0170   19.5200 N.ar    1  UNL1       -0.2209
     39 O          -8.7400   14.2310   27.8240 O.2     1  UNL1       -0.2523
     40 O         -10.1900   19.6640   26.7850 O.3     1  UNL1       -0.2186
     41 O         -11.8820   18.8320   28.8840 O.3     1  UNL1       -0.2186
     42 O          -7.8850   17.8390   19.8460 O.2     1  UNL1       -0.2679
     43 S          -5.3710   17.6610   18.1970 S.2     1  UNL1       -0.0491
@<TRIPOS>BOND
     1     4     3    1
     2     5     4    1
     3     6     5    1
     4     8     2    1
     5     9     8   ar
     6    10     9   ar
     7    11    10   ar
     8    12    11   ar
     9    13    12   ar
    10    13     8   ar
    11    14    10    1
    12    17    16   ar
    13     3    18    1
    14    19    18    1
    15    20    19   ar
    16    21    20   ar
    17    22    21   ar
    18    23    22   ar
    19    24    19   ar
    20    24    23   ar
    21     6    25    1
    22    26    25    1
    23    27    26   ar
    24    28    27   ar
    25    29    28   ar
    26    30    29   ar
    27    31    30   ar
    28    31    26   ar
    29    32     7    1
    30    33    32    1
    31    34    32    1
    32    34    33    1
    33    35     2    1
    34    35     1   am
    35    35     3    1
    36    36     6    1
    37    36     7    1
    38    36     1   am
    39    37    14   am
    40    37    15    1
    41    38    16   ar
    42    38    15   ar
    43    39     1    2
    44     4    40    1
    45     5    41    1
    46    42    14    2
    47    43    17   ar
    48    43    15   ar
