@<TRIPOS>MOLECULE
4Q5M_ROC_A1101
 49 53 0 0 0
SMALL
GASTEIGER

@<TRIPOS>ATOM
      1 C         -12.8410   14.6980   32.7270 C.2     1  UNL1        0.2829
      2 O         -13.3080   15.7480   33.1200 O.2     1  UNL1       -0.2667
      3 N         -13.0000   12.2960   32.3320 N.ar    1  UNL1       -0.2407
      4 C         -13.6210   13.4160   32.7650 C.ar    1  UNL1        0.1361
      5 C         -14.9340   13.3600   33.2270 C.ar    1  UNL1        0.0238
      6 C         -15.5950   12.1360   33.2330 C.ar    1  UNL1        0.0032
      7 C         -15.5630    9.7600   32.7690 C.ar    1  UNL1        0.0015
      8 C         -14.8800    8.6390   32.3110 C.ar    1  UNL1        0.0001
      9 C         -13.5690    8.7460   31.8560 C.ar    1  UNL1        0.0015
     10 C         -12.9360    9.9800   31.8660 C.ar    1  UNL1        0.0191
     11 C         -14.9270   10.9980   32.7800 C.ar    1  UNL1        0.0177
     12 C         -13.6190   11.1010   32.3270 C.ar    1  UNL1        0.0814
     13 N         -11.6010   14.6090   32.2760 N.am    1  UNL1       -0.1922
     14 C         -10.7370   15.7730   32.1550 C.3     1  UNL1        0.1822
     15 C         -10.2670   15.8350   30.7310 C.2     1  UNL1        0.2618
     16 O          -9.2480   15.2450   30.4090 O.2     1  UNL1       -0.2715
     17 C          -9.5730   15.5360   33.1040 C.3     1  UNL1        0.1195
     18 C         -10.1560   15.4940   34.4950 C.2     1  UNL1        0.2630
     19 O         -10.5690   16.5120   35.0340 O.2     1  UNL1       -0.2716
     20 N         -10.2080   14.2900   35.0590 N.am    1  UNL1       -0.0877
     21 C         -10.3200   18.1000   28.2110 C.3     1  UNL1        0.1879
     22 O         -11.4930   18.9000   28.3560 O.3     1  UNL1       -0.2198
     23 C         -10.6680   16.6320   28.4440 C.3     1  UNL1        0.1313
     24 N         -11.0280   16.5140   29.8610 N.am    1  UNL1       -0.2027
     25 C         -11.9170   16.2680   27.6430 C.3     1  UNL1        0.0506
     26 C         -12.4230   14.9120   28.0580 C.ar    1  UNL1       -0.0204
     27 C         -11.7870   13.7650   27.5930 C.ar    1  UNL1       -0.0042
     28 C         -13.5310   14.8150   28.8950 C.ar    1  UNL1       -0.0042
     29 C         -12.2510   12.5120   27.9700 C.ar    1  UNL1       -0.0003
     30 C         -13.9870   13.5590   29.2750 C.ar    1  UNL1       -0.0003
     31 C         -13.3520   12.4160   28.8110 C.ar    1  UNL1       -0.0000
     32 N          -8.2650   18.0580   26.8830 N.3     1  UNL1       -0.2643
     33 C          -9.7040   18.3610   26.8360 C.3     1  UNL1        0.1075
     34 C          -7.7580   17.9060   25.5110 C.3     1  UNL1        0.1365
     35 C          -8.4040   16.7520   24.8170 C.2     1  UNL1        0.2558
     36 O          -8.4680   15.6580   25.3700 O.2     1  UNL1       -0.2719
     37 C          -6.2610   17.6440   25.5120 C.3     1  UNL1        0.0254
     38 C          -5.5260   18.7770   26.2080 C.3     1  UNL1        0.0032
     39 C          -4.0500   18.4290   26.2370 C.3     1  UNL1        0.0001
     40 C          -3.8460   17.1730   27.0690 C.3     1  UNL1        0.0000
     41 C          -4.2910   17.4250   28.5060 C.3     1  UNL1        0.0000
     42 C          -5.7700   17.7990   28.5450 C.3     1  UNL1        0.0014
     43 C          -6.0820   18.9690   27.6120 C.3     1  UNL1        0.0161
     44 C          -7.5910   19.1810   27.5560 C.3     1  UNL1        0.0725
     45 N          -8.8350   17.0480   23.5930 N.am    1  UNL1       -0.2077
     46 C          -9.4900   16.1170   22.6870 C.3     1  UNL1        0.0788
     47 C          -9.7650   16.8110   21.3630 C.3     1  UNL1        0.0217
     48 C          -8.6270   14.8950   22.4300 C.3     1  UNL1        0.0217
     49 C         -10.8240   15.6900   23.2790 C.3     1  UNL1        0.0217
@<TRIPOS>BOND
     1     2     1    2
     2     4     3   ar
     3     4     1    1
     4     5     4   ar
     5     6     5   ar
     6     8     7   ar
     7     9     8   ar
     8    10     9   ar
     9    11     7   ar
    10    11     6   ar
    11    12    10   ar
    12    12     3   ar
    13    12    11   ar
    14    13     1   am
    15    14    13    1
    16    15    14    1
    17    16    15    2
    18    14    17    1
    19    18    17    1
    20    19    18    2
    21    20    18   am
    22    21    22    1
    23    23    21    1
    24    24    15   am
    25    24    23    1
    26    23    25    1
    27    26    25    1
    28    27    26   ar
    29    28    26   ar
    30    29    27   ar
    31    30    28   ar
    32    31    30   ar
    33    31    29   ar
    34    33    32    1
    35    33    21    1
    36    34    32    1
    37    34    35    1
    38    36    35    2
    39    37    34    1
    40    38    37    1
    41    39    38    1
    42    40    39    1
    43    41    40    1
    44    42    41    1
    45    43    38    1
    46    43    42    1
    47    44    32    1
    48    44    43    1
    49    45    35   am
    50    46    45    1
    51    46    47    1
    52    48    46    1
    53    49    46    1
