@<TRIPOS>MOLECULE
6DJ2_AB1_B201
 46 49 0 0 0
SMALL
GASTEIGER

@<TRIPOS>ATOM
      1 C          -4.4860   17.7280   21.1270 C.3     1  UNL1        0.1185
      2 C          -5.9430   16.3530   22.5970 C.3     1  UNL1        0.0973
      3 N          -6.9080   17.4820   22.6750 N.am    1  UNL1       -0.2560
      4 C          -6.5920   18.6630   22.1490 C.2     1  UNL1        0.3235
      5 N          -5.4160   18.8390   21.4580 N.am    1  UNL1       -0.1884
      6 C         -12.2420   14.9450   28.1260 C.ar    1  UNL1       -0.0204
      7 C         -13.1820   14.7400   29.1120 C.ar    1  UNL1       -0.0042
      8 C         -13.5650   13.5180   29.6150 C.ar    1  UNL1       -0.0003
      9 C         -12.9290   12.3740   29.0710 C.ar    1  UNL1       -0.0000
     10 C         -12.0490   12.5260   28.0400 C.ar    1  UNL1       -0.0003
     11 C         -11.6920   13.7880   27.5730 C.ar    1  UNL1       -0.0042
     12 O          -7.3830   19.6160   22.2770 O.2     1  UNL1       -0.2508
     13 C          -8.1980   17.2460   23.3790 C.3     1  UNL1        0.1547
     14 C          -7.8600   17.0350   24.8470 C.2     1  UNL1        0.2595
     15 N          -8.0420   18.1010   25.6200 N.am    1  UNL1       -0.2054
     16 C          -7.7280   18.0890   27.0610 C.3     1  UNL1        0.1023
     17 C          -8.9690   16.0990   22.7410 C.3     1  UNL1        0.0272
     18 C         -10.2710   15.9320   23.5350 C.3     1  UNL1        0.0022
     19 C          -9.3260   16.4550   21.2990 C.3     1  UNL1        0.0022
     20 O          -7.4830   15.9160   25.2180 O.2     1  UNL1       -0.2716
     21 C          -3.3190   17.0830   26.6650 C.ar    1  UNL1       -0.0003
     22 C          -2.8590   17.6070   25.4690 C.ar    1  UNL1       -0.0000
     23 C          -3.6340   18.5980   24.8500 C.ar    1  UNL1       -0.0003
     24 C          -4.8070   19.0360   25.4810 C.ar    1  UNL1       -0.0042
     25 C          -5.3040   18.4400   26.6320 C.ar    1  UNL1       -0.0205
     26 C          -4.4880   17.4760   27.2550 C.ar    1  UNL1       -0.0042
     27 C          -6.4440   18.8760   27.2930 C.3     1  UNL1        0.0481
     28 C          -8.8830   18.7030   27.8520 C.3     1  UNL1        0.0567
     29 C         -10.2560   18.1350   27.5560 C.3     1  UNL1        0.1738
     30 C         -10.5380   16.7260   28.0740 C.3     1  UNL1        0.1300
     31 N         -10.4320   16.6350   29.5450 N.am    1  UNL1       -0.2011
     32 C          -9.4500   15.8970   30.1120 C.2     1  UNL1        0.2859
     33 C          -9.5140   15.7230   31.6280 C.3     1  UNL1        0.2911
     34 O         -10.4830   16.6600   32.1640 O.3     1  UNL1       -0.4662
     35 C         -10.6800   16.3930   33.4780 C.ar    1  UNL1        0.1312
     36 O         -11.2390   19.0140   28.1090 O.3     1  UNL1       -0.2212
     37 C         -11.9260   16.2450   27.6950 C.3     1  UNL1        0.0506
     38 O          -8.5170   15.3580   29.4900 O.2     1  UNL1       -0.2693
     39 C          -9.7770   16.9090   34.3910 C.ar    1  UNL1        0.0118
     40 C         -10.0350   16.6330   35.7270 C.ar    1  UNL1       -0.0013
     41 C         -11.0960   15.8470   36.1360 C.ar    1  UNL1       -0.0004
     42 C         -12.0020   15.3350   35.1950 C.ar    1  UNL1       -0.0013
     43 C         -11.7880   15.6360   33.8340 C.ar    1  UNL1        0.0118
     44 C         -12.6460   15.0800   32.8900 C.3     1  UNL1        0.0342
     45 C          -8.6930   17.7760   34.0750 C.3     1  UNL1        0.0342
     46 C          -5.1890   16.3880   21.2770 C.3     1  UNL1        0.0450
@<TRIPOS>BOND
     1     3     2    1
     2     4     3   am
     3     5     4   am
     4     5     1    1
     5     7     6   ar
     6     8     7   ar
     7     9     8   ar
     8    10     9   ar
     9    11    10   ar
    10    11     6   ar
    11    12     4    2
    12    13     3    1
    13    14    13    1
    14    15    14   am
    15    16    15    1
    16    17    13    1
    17    17    18    1
    18    19    17    1
    19    20    14    2
    20    22    21   ar
    21    23    22   ar
    22    24    23   ar
    23    25    24   ar
    24    26    25   ar
    25    26    21   ar
    26    16    27    1
    27    27    25    1
    28    28    16    1
    29    29    28    1
    30    30    29    1
    31    31    30    1
    32    32    31   am
    33    33    32    1
    34    34    33    1
    35    35    34    1
    36    29    36    1
    37    37     6    1
    38    30    37    1
    39    38    32    2
    40    39    35   ar
    41    40    39   ar
    42    41    40   ar
    43    42    41   ar
    44    43    42   ar
    45    43    35   ar
    46    44    43    1
    47    45    39    1
    48    46     2    1
    49    46     1    1
