@<TRIPOS>MOLECULE
7DOZ_1UN_A1102
 40 43 0 0 0
SMALL
GASTEIGER

@<TRIPOS>ATOM
      1 C         -13.1730   14.4700   28.0270 C.3     1  UNL1        0.0161
      2 C         -13.2770   13.8350   29.3880 C.3     1  UNL1        0.0032
      3 C         -13.5520   12.2820   29.2940 C.3     1  UNL1        0.0001
      4 C         -12.4650   11.5790   28.4580 C.3     1  UNL1        0.0000
      5 C         -12.4070   12.1930   27.0680 C.3     1  UNL1        0.0000
      6 C         -12.1220   13.7190   27.1360 C.3     1  UNL1        0.0014
      7 N         -11.4620   16.1240   28.8930 N.3     1  UNL1       -0.2643
      8 C         -11.5870   15.5220   30.2610 C.3     1  UNL1        0.1365
      9 C         -11.9960   14.0260   30.2030 C.3     1  UNL1        0.0254
     10 C         -12.7330   15.9680   28.0800 C.3     1  UNL1        0.0725
     11 C         -10.2500   15.6160   30.9450 C.2     1  UNL1        0.2558
     12 N         -10.2490   15.9310   32.3850 N.am    1  UNL1       -0.2077
     13 C          -9.0310   16.0630   33.1600 C.3     1  UNL1        0.0788
     14 C          -8.3020   17.3440   32.6400 C.3     1  UNL1        0.0217
     15 C          -8.1400   14.7530   33.0470 C.3     1  UNL1        0.0217
     16 C          -9.4210   16.2890   34.6630 C.3     1  UNL1        0.0217
     17 O          -9.2630   15.4350   30.3170 O.2     1  UNL1       -0.2719
     18 C         -11.1230   17.5630   29.0010 C.3     1  UNL1        0.1075
     19 C         -10.5070   17.9640   27.6140 C.3     1  UNL1        0.1885
     20 C          -9.0410   17.5390   27.5470 C.3     1  UNL1        0.1383
     21 O         -10.6400   19.3040   27.3570 O.3     1  UNL1       -0.2198
     22 N          -8.6240   17.8080   26.1850 N.am    1  UNL1       -0.1999
     23 C          -8.1860   18.4030   28.4690 C.3     1  UNL1        0.0864
     24 C          -8.3490   16.7070   25.2370 C.2     1  UNL1        0.2646
     25 O          -8.4370   15.5570   25.5730 O.2     1  UNL1       -0.2684
     26 C          -7.9140   17.1550   23.8060 C.ar    1  UNL1        0.0542
     27 C          -6.7560   17.9260   23.6630 C.ar    1  UNL1        0.0045
     28 C          -6.3570   18.3390   22.3960 C.ar    1  UNL1        0.0034
     29 C          -7.1240   17.9990   21.2850 C.ar    1  UNL1        0.0417
     30 C          -8.2850   17.2340   21.4400 C.ar    1  UNL1        0.1919
     31 C          -8.6870   16.8240   22.7060 C.ar    1  UNL1        0.0215
     32 O          -9.0620   16.8890   20.3300 O.3     1  UNL1       -0.2869
     33 C          -9.9680   15.9830   22.8850 C.3     1  UNL1        0.0345
     34 S          -6.5080   17.6610   28.6160 S.3     1  UNL1       -0.1118
     35 C          -5.3920   18.3040   27.2700 C.ar    1  UNL1        0.0253
     36 C          -4.3300   17.5210   26.8380 C.ar    1  UNL1        0.0061
     37 C          -3.4870   17.9860   25.8330 C.ar    1  UNL1        0.0005
     38 C          -3.7230   19.2430   25.2730 C.ar    1  UNL1        0.0000
     39 C          -4.7850   20.0290   25.7110 C.ar    1  UNL1        0.0005
     40 C          -5.6240   19.5620   26.7170 C.ar    1  UNL1        0.0061
@<TRIPOS>BOND
     1     2     1    1
     2     2     3    1
     3     4     3    1
     4     5     4    1
     5     6     5    1
     6     1     6    1
     7     8     7    1
     8     9     8    1
     9     9     2    1
    10    10     7    1
    11    10     1    1
    12     8    11    1
    13    12    11   am
    14    13    12    1
    15    13    14    1
    16    15    13    1
    17    16    13    1
    18    17    11    2
    19    18     7    1
    20    19    18    1
    21    20    19    1
    22    19    21    1
    23    22    20    1
    24    20    23    1
    25    24    22   am
    26    25    24    2
    27    26    24    1
    28    27    26   ar
    29    28    27   ar
    30    29    28   ar
    31    30    29   ar
    32    31    30   ar
    33    31    26   ar
    34    32    30    1
    35    33    31    1
    36    34    23    1
    37    35    34    1
    38    36    35   ar
    39    37    36   ar
    40    38    37   ar
    41    39    38   ar
    42    40    39   ar
    43    40    35   ar
