@<TRIPOS>MOLECULE
7DT9_ROC_A1101
 49 53 0 0 0
SMALL
GASTEIGER

@<TRIPOS>ATOM
      1 C          -6.2450   18.5470   22.9180 C.2     1  UNL1        0.2829
      2 O          -6.9770   19.3770   22.4900 O.2     1  UNL1       -0.2667
      3 N          -4.0070   17.5680   23.2210 N.ar    1  UNL1       -0.2407
      4 C          -4.7220   18.6800   22.9340 C.ar    1  UNL1        0.1361
      5 C          -4.0770   19.8930   22.7040 C.ar    1  UNL1        0.0238
      6 C          -2.7160   19.9350   22.7550 C.ar    1  UNL1        0.0032
      7 C          -0.5890   18.8270   23.0880 C.ar    1  UNL1        0.0015
      8 C           0.1170   17.6650   23.3740 C.ar    1  UNL1        0.0001
      9 C          -0.5510   16.4680   23.6140 C.ar    1  UNL1        0.0015
     10 C          -1.9370   16.4280   23.5630 C.ar    1  UNL1        0.0191
     11 C          -1.9930   18.7930   23.0340 C.ar    1  UNL1        0.0177
     12 C          -2.6450   17.6060   23.2670 C.ar    1  UNL1        0.0814
     13 N          -6.7720   17.3260   23.4870 N.am    1  UNL1       -0.1922
     14 C          -8.2060   17.0930   23.5510 C.3     1  UNL1        0.1822
     15 C          -8.5270   16.7880   25.0060 C.2     1  UNL1        0.2618
     16 O          -8.5260   15.6710   25.4110 O.2     1  UNL1       -0.2715
     17 C          -8.5820   15.9320   22.6510 C.3     1  UNL1        0.1195
     18 C          -8.3250   16.4360   21.2400 C.2     1  UNL1        0.2630
     19 O          -7.5320   15.9060   20.5460 O.2     1  UNL1       -0.2716
     20 N          -9.0480   17.5930   20.7640 N.am    1  UNL1       -0.0877
     21 C         -10.5350   18.0990   27.5720 C.3     1  UNL1        0.1879
     22 O         -10.6570   19.4940   27.5650 O.3     1  UNL1       -0.2198
     23 C          -9.0940   17.6830   27.2970 C.3     1  UNL1        0.1313
     24 N          -8.7980   17.9110   25.8880 N.am    1  UNL1       -0.2027
     25 C          -8.1460   18.5090   28.1710 C.3     1  UNL1        0.0506
     26 C          -6.7100   18.4220   27.6560 C.ar    1  UNL1       -0.0204
     27 C          -5.9340   17.3090   27.9480 C.ar    1  UNL1       -0.0042
     28 C          -6.1800   19.4640   26.9040 C.ar    1  UNL1       -0.0042
     29 C          -4.6320   17.2320   27.4830 C.ar    1  UNL1       -0.0003
     30 C          -4.8810   19.3820   26.4360 C.ar    1  UNL1       -0.0003
     31 C          -4.1060   18.2670   26.7250 C.ar    1  UNL1       -0.0000
     32 N         -11.3740   16.1560   28.7620 N.3     1  UNL1       -0.2643
     33 C         -10.9860   17.5530   28.9240 C.3     1  UNL1        0.1075
     34 C         -11.5190   15.5110   30.1170 C.3     1  UNL1        0.1365
     35 C         -10.2310   15.5970   30.8680 C.2     1  UNL1        0.2558
     36 O          -9.2430   15.2210   30.3370 O.2     1  UNL1       -0.2719
     37 C         -11.8670   14.0250   29.9510 C.3     1  UNL1        0.0254
     38 C         -13.1870   13.8620   29.2070 C.3     1  UNL1        0.0032
     39 C         -13.4430   12.3210   29.0790 C.3     1  UNL1        0.0001
     40 C         -12.5530   11.6940   27.9970 C.3     1  UNL1        0.0000
     41 C         -12.7720   12.3860   26.6550 C.3     1  UNL1        0.0000
     42 C         -12.4030   13.8850   26.7450 C.3     1  UNL1        0.0014
     43 C         -13.2040   14.6030   27.8740 C.3     1  UNL1        0.0161
     44 C         -12.6580   16.0520   27.9630 C.3     1  UNL1        0.0725
     45 N         -10.2500   16.1160   32.2260 N.am    1  UNL1       -0.2077
     46 C          -9.0640   16.2420   33.0630 C.3     1  UNL1        0.0788
     47 C          -9.4830   16.7080   34.4580 C.3     1  UNL1        0.0217
     48 C          -8.1250   17.2910   32.4550 C.3     1  UNL1        0.0217
     49 C          -8.3740   14.8900   33.2240 C.3     1  UNL1        0.0217
@<TRIPOS>BOND
     1     2     1    2
     2     4     1    1
     3     4     3   ar
     4     5     4   ar
     5     6     5   ar
     6     8     7   ar
     7     9     8   ar
     8    10     9   ar
     9    11     7   ar
    10    11     6   ar
    11    12    11   ar
    12    12    10   ar
    13    12     3   ar
    14    13     1   am
    15    14    13    1
    16    15    14    1
    17    16    15    2
    18    14    17    1
    19    18    17    1
    20    19    18    2
    21    20    18   am
    22    21    22    1
    23    23    21    1
    24    24    15   am
    25    24    23    1
    26    23    25    1
    27    26    25    1
    28    27    26   ar
    29    28    26   ar
    30    29    27   ar
    31    30    28   ar
    32    31    30   ar
    33    31    29   ar
    34    33    32    1
    35    33    21    1
    36    34    32    1
    37    34    35    1
    38    36    35    2
    39    37    34    1
    40    38    37    1
    41    39    38    1
    42    40    39    1
    43    41    40    1
    44    42    41    1
    45    43    42    1
    46    43    38    1
    47    44    43    1
    48    44    32    1
    49    45    35   am
    50    46    45    1
    51    46    47    1
    52    48    46    1
    53    49    46    1
