@<TRIPOS>MOLECULE
8ESX_X7B_B203
 43 47 0 0 0
SMALL
GASTEIGER

@<TRIPOS>ATOM
      1 B         -11.0250   15.2580   36.5570 B       1  UNL1        0.0000
      2 C          -9.8170   16.6200   33.0690 C.ar    1  UNL1        0.0000
      3 C          -9.9020   15.4520   32.3730 C.ar    1  UNL1        0.0000
      4 C         -10.3170   14.2980   32.9870 C.ar    1  UNL1        0.0000
      5 C         -10.6670   14.3470   34.3710 C.ar    1  UNL1        0.0000
      6 C         -10.5740   15.4750   35.0500 C.ar    1  UNL1        0.0000
      7 C         -10.1410   16.6560   34.3990 C.ar    1  UNL1        0.0000
      8 C         -11.1390   13.2750   35.3260 C.2     1  UNL1        0.0000
      9 C         -12.0380   15.6120   29.9290 C.3     1  UNL1        0.0000
     10 C         -10.6650   17.6450   29.5180 C.3     1  UNL1        0.0000
     11 C         -10.4340   17.9360   28.0280 C.3     1  UNL1        0.0000
     12 C          -8.9990   17.6370   27.5960 C.3     1  UNL1        0.0000
     13 C          -8.9750   16.6810   25.1960 C.2     1  UNL1        0.0000
     14 C          -8.8790   16.1550   22.8260 C.3     1  UNL1        0.0000
     15 C          -9.7180   16.3910   21.9440 C.3     1  UNL1        0.0000
     16 C          -7.6020   17.2400   21.2950 C.3     1  UNL1        0.0000
     17 C          -7.4090   16.4680   22.2100 C.3     1  UNL1        0.0000
     18 C          -6.4140   17.2480   23.1740 C.3     1  UNL1        0.0000
     19 C          -6.6450   18.6600   22.8840 C.3     1  UNL1        0.0000
     20 C          -7.9340   18.5890   28.1600 C.3     1  UNL1        0.0000
     21 C          -6.5820   18.2180   27.5430 C.ar    1  UNL1        0.0000
     22 C          -5.9270   17.0460   27.8890 C.ar    1  UNL1        0.0000
     23 C          -4.7070   16.7330   27.2930 C.ar    1  UNL1        0.0000
     24 C          -4.1540   17.5940   26.3520 C.ar    1  UNL1        0.0000
     25 C          -4.8100   18.7730   26.0190 C.ar    1  UNL1        0.0000
     26 C          -6.0160   19.0750   26.6140 C.ar    1  UNL1        0.0000
     27 C         -12.7730   15.3420   28.6070 C.3     1  UNL1        0.0000
     28 C         -14.1830   14.8710   28.9610 C.3     1  UNL1        0.0000
     29 C         -12.0310   14.3520   27.7330 C.3     1  UNL1        0.0000
     30 N         -10.7260   16.2380   29.7990 N.3     1  UNL1        0.0000
     31 N          -9.0720   17.7320   26.1410 N.am    1  UNL1        0.0000
     32 O         -11.3250   13.9000   36.5960 O.3     1  UNL1        0.0000
     33 O         -10.1380   15.5720   37.6550 O.3     1  UNL1        0.0000
     34 O         -11.3210   12.1300   35.0670 O.2     1  UNL1        0.0000
     35 O          -8.8470   15.5560   25.4530 O.2     1  UNL1        0.0000
     36 O          -9.0700   17.1490   23.9100 O.3     1  UNL1        0.0000
     37 O          -9.1140   17.4720   21.1170 O.3     1  UNL1        0.0000
     38 O          -7.0890   18.7270   21.6510 O.3     1  UNL1        0.0000
     39 O         -10.7720   19.2920   27.8330 O.3     1  UNL1        0.0000
     40 O          -9.3510   14.1150   30.1560 O.2     1  UNL1        0.0000
     41 O          -8.2690   16.2820   30.4720 O.2     1  UNL1        0.0000
     42 O         -12.1860   15.9850   36.6920 O.3     1  UNL1        0.0000
     43 S          -9.4700   15.4910   30.6100 S.O2    1  UNL1        0.0000
@<TRIPOS>UNITY_ATOM_ATTR
1 1
charge -1
@<TRIPOS>BOND
     1     3     2   ar
     2     4     3   ar
     3     5     4   ar
     4     6     1    1
     5     6     5   ar
     6     7     6   ar
     7     7     2   ar
     8     8     5    1
     9    11    10    1
    10    12    11    1
    11    15    14    1
    12    17    14    1
    13    17    16    1
    14    17    18    1
    15    19    18    1
    16    12    20    1
    17    21    20    1
    18    22    21   ar
    19    23    22   ar
    20    24    23   ar
    21    25    24   ar
    22    26    21   ar
    23    26    25   ar
    24    27     9    1
    25    27    28    1
    26    29    27    1
    27    30     9    1
    28    30    10    1
    29    31    13   am
    30    31    12    1
    31    32     8    1
    32    32     1    1
    33     1    33    1
    34    34     8    2
    35    35    13    2
    36    14    36    1
    37    36    13    1
    38    16    37    1
    39    37    15    1
    40    38    16    1
    41    38    19    1
    42    11    39    1
    43    42     1    1
    44    43    41    2
    45    43    40    2
    46    43    30    1
    47    43     3    1
