@<TRIPOS>MOLECULE
8ESY_X7B_B201
 43 47 0 0 0
SMALL
GASTEIGER

@<TRIPOS>ATOM
      1 B         -11.1130   15.2370   36.6480 B       1  UNL1        0.0000
      2 C          -9.8300   16.5600   33.1410 C.ar    1  UNL1        0.0000
      3 C          -9.9710   15.3940   32.4390 C.ar    1  UNL1        0.0000
      4 C         -10.4490   14.2760   33.0600 C.ar    1  UNL1        0.0000
      5 C         -10.7910   14.3320   34.4430 C.ar    1  UNL1        0.0000
      6 C         -10.6430   15.4490   35.1380 C.ar    1  UNL1        0.0000
      7 C         -10.1550   16.6120   34.4810 C.ar    1  UNL1        0.0000
      8 C         -11.3110   13.2710   35.3830 C.2     1  UNL1        0.0000
      9 C         -12.1030   15.5490   29.9520 C.3     1  UNL1        0.0000
     10 C         -10.6630   17.5830   29.5680 C.3     1  UNL1        0.0000
     11 C         -10.5140   17.9070   28.0880 C.3     1  UNL1        0.0000
     12 C          -9.0810   17.5880   27.6720 C.3     1  UNL1        0.0000
     13 C          -9.0860   16.6140   25.2830 C.2     1  UNL1        0.0000
     14 C          -9.0550   16.1080   22.8650 C.3     1  UNL1        0.0000
     15 C          -9.8800   16.3560   21.9810 C.3     1  UNL1        0.0000
     16 C          -7.7550   17.1700   21.3460 C.3     1  UNL1        0.0000
     17 C          -7.5600   16.4090   22.2620 C.3     1  UNL1        0.0000
     18 C          -6.5500   17.1650   23.2450 C.3     1  UNL1        0.0000
     19 C          -6.7400   18.5740   22.9190 C.3     1  UNL1        0.0000
     20 C          -8.0110   18.5520   28.1800 C.3     1  UNL1        0.0000
     21 C          -6.6570   18.1770   27.5630 C.ar    1  UNL1        0.0000
     22 C          -5.9940   17.0150   27.9320 C.ar    1  UNL1        0.0000
     23 C          -4.7680   16.6960   27.3660 C.ar    1  UNL1        0.0000
     24 C          -4.2080   17.5240   26.4110 C.ar    1  UNL1        0.0000
     25 C          -4.8590   18.6870   26.0460 C.ar    1  UNL1        0.0000
     26 C          -6.0900   19.0000   26.6010 C.ar    1  UNL1        0.0000
     27 C         -12.8210   15.2890   28.6240 C.3     1  UNL1        0.0000
     28 C         -14.2470   14.8100   28.9000 C.3     1  UNL1        0.0000
     29 C         -12.0880   14.3290   27.6880 C.3     1  UNL1        0.0000
     30 N         -10.8060   16.1790   29.8690 N.3     1  UNL1        0.0000
     31 N          -9.1370   17.6980   26.2270 N.am    1  UNL1        0.0000
     32 O         -11.4570   13.8880   36.6530 O.3     1  UNL1        0.0000
     33 O         -10.2000   15.5250   37.8080 O.3     1  UNL1        0.0000
     34 O         -11.5550   12.1390   35.1330 O.2     1  UNL1        0.0000
     35 O          -8.9690   15.4860   25.5690 O.2     1  UNL1        0.0000
     36 O          -9.2160   17.0730   23.9820 O.3     1  UNL1        0.0000
     37 O          -9.2600   17.4500   21.1790 O.3     1  UNL1        0.0000
     38 O          -7.1670   18.6340   21.6880 O.3     1  UNL1        0.0000
     39 O         -10.8600   19.2460   27.8650 O.3     1  UNL1        0.0000
     40 O          -9.4190   14.0410   30.0580 O.2     1  UNL1        0.0000
     41 O          -8.3830   16.1980   30.5140 O.2     1  UNL1        0.0000
     42 O         -12.2860   15.9690   36.8530 O.3     1  UNL1        0.0000
     43 S          -9.5480   15.3750   30.6600 S.O2    1  UNL1        0.0000
@<TRIPOS>UNITY_ATOM_ATTR
1 1
charge -1
@<TRIPOS>BOND
     1     3     2   ar
     2     4     3   ar
     3     5     4   ar
     4     6     1    1
     5     6     5   ar
     6     7     6   ar
     7     7     2   ar
     8     8     5    1
     9    11    10    1
    10    12    11    1
    11    15    14    1
    12    17    14    1
    13    17    16    1
    14    17    18    1
    15    19    18    1
    16    12    20    1
    17    21    20    1
    18    22    21   ar
    19    23    22   ar
    20    24    23   ar
    21    25    24   ar
    22    26    21   ar
    23    26    25   ar
    24    27     9    1
    25    27    28    1
    26    29    27    1
    27    30     9    1
    28    30    10    1
    29    31    13   am
    30    31    12    1
    31    32     8    1
    32    32     1    1
    33     1    33    1
    34    34     8    2
    35    35    13    2
    36    14    36    1
    37    36    13    1
    38    16    37    1
    39    37    15    1
    40    38    16    1
    41    38    19    1
    42    11    39    1
    43    42     1    1
    44    43    41    2
    45    43    40    2
    46    43    30    1
    47    43     3    1
