@<TRIPOS>MOLECULE
2WZY_SQX_F301
 50 56 0 0 0
SMALL
GASTEIGER

@<TRIPOS>ATOM
      1 O         159.8710  125.4050  178.8410 O.2     1  UNL1       -0.2501
      2 C         161.0200  125.6890  178.5560 C.2     1  UNL1        0.3167
      3 O         162.1270  124.8520  178.9500 O.3     1  UNL1       -0.4480
      4 C         163.3260  125.5310  178.5830 C.3     1  UNL1        0.1871
      5 C         162.9260  126.9390  178.1340 C.3     1  UNL1        0.0590
      6 C         161.4440  126.8770  177.7770 C.3     1  UNL1        0.1030
      7 C         160.6160  128.1120  178.1110 C.3     1  UNL1        0.0118
      8 C         164.2060  125.5040  179.8040 C.2     1  UNL1       -0.0124
      9 C         165.3730  124.8150  179.8020 C.2     1  UNL1       -0.0444
     10 C         165.9280  124.2700  178.5140 C.3     1  UNL1        0.0262
     11 C         166.1660  124.5580  181.0660 C.3     1  UNL1        0.0440
     12 C         165.3620  124.8070  182.3590 C.3     1  UNL1        0.0386
     13 C         164.5730  126.1060  182.2540 C.3     1  UNL1        0.0103
     14 C         163.6940  126.2510  181.0220 C.3     1  UNL1        0.0253
     15 C         166.6940  123.1330  181.0380 C.2     1  UNL1       -0.0281
     16 C         167.9670  122.7390  180.8550 C.2     1  UNL1       -0.0180
     17 C         169.1130  123.6860  180.6020 C.3     1  UNL1        0.0286
     18 C         168.1840  121.2600  180.8710 C.3     1  UNL1        0.1725
     19 O         169.0810  120.9240  179.8150 O.3     1  UNL1       -0.2186
     20 C         168.7360  120.7910  182.2060 C.3     1  UNL1        0.0667
     21 C         168.8890  119.2750  182.2330 C.3     1  UNL1        0.1207
     22 O         169.7480  118.9140  183.3160 O.3     1  UNL1       -0.3366
     23 C         167.5570  118.5580  182.4630 C.3     1  UNL1        0.0347
     24 C         167.8640  117.4770  183.4910 C.3     1  UNL1        0.0588
     25 C         169.0900  118.0170  184.2170 C.3     1  UNL1        0.1895
     26 O         168.6700  118.7340  185.3630 O.3     1  UNL1       -0.3124
     27 C         170.0680  116.9930  184.7740 C.3     1  UNL1        0.0614
     28 C         170.5350  117.5710  186.1100 C.3     1  UNL1        0.0639
     29 C         169.6850  118.8260  186.3500 C.3     1  UNL1        0.2148
     30 C         169.0680  118.9010  187.7600 C.3     1  UNL1        0.1733
     31 C         170.1220  118.7970  188.8590 C.3     1  UNL1        0.0380
     32 O         168.1880  117.7860  187.9110 O.3     1  UNL1       -0.2207
     33 C         168.2540  120.1900  187.9270 C.3     1  UNL1        0.0378
     34 C         168.9440  121.4400  187.3640 C.3     1  UNL1        0.0327
     35 O         170.4220  120.0080  186.0080 O.3     1  UNL1       -0.3343
     36 C         169.6840  121.2390  186.0310 C.3     1  UNL1        0.1218
     37 C         170.7200  122.3510  185.8270 C.3     1  UNL1        0.0516
     38 C         170.0850  123.7140  185.6830 C.2     1  UNL1       -0.0418
     39 C         170.4530  124.6900  186.5020 C.2     1  UNL1       -0.0091
     40 C         169.0430  123.9210  184.6140 C.3     1  UNL1        0.0225
     41 C         168.7270  125.3880  184.4030 C.3     1  UNL1        0.0103
     42 C         167.7510  125.5700  183.2460 C.3     1  UNL1        0.0412
     43 C         166.3300  125.0810  183.5000 C.2     1  UNL1        0.0314
     44 N         165.9430  124.9400  184.7060 N.2     1  UNL1       -0.2790
     45 C         164.6540  124.5030  185.2770 C.3     1  UNL1        0.1246
     46 C         164.5450  122.9890  185.0970 C.3     1  UNL1        0.0243
     47 C         165.3890  122.2790  186.1550 C.3     1  UNL1        0.0021
     48 C         164.8880  122.5830  183.6610 C.3     1  UNL1        0.0023
     49 C         164.3110  121.2270  183.2950 C.3     1  UNL1        0.0001
     50 C         164.4090  123.6280  182.6450 C.3     1  UNL1        0.0059
@<TRIPOS>BOND
     1     2     1    2
     2     3     2    1
     3     4     3    1
     4     5     4    1
     5     6     5    1
     6     6     2    1
     7     6     7    1
     8     4     8    1
     9     9     8    2
    10    10     9    1
    11    11     9    1
    12    12    11    1
    13    12    13    1
    14    14     8    1
    15    14    13    1
    16    11    15    1
    17    16    15    2
    18    17    16    1
    19    18    16    1
    20    18    19    1
    21    20    18    1
    22    21    20    1
    23    22    21    1
    24    23    21    1
    25    24    23    1
    26    25    24    1
    27    25    22    1
    28    26    25    1
    29    27    25    1
    30    28    27    1
    31    29    26    1
    32    29    28    1
    33    30    29    1
    34    30    31    1
    35    32    30    1
    36    33    30    1
    37    34    33    1
    38    35    29    1
    39    36    34    1
    40    36    35    1
    41    37    36    1
    42    38    37    1
    43    39    38    2
    44    40    38    1
    45    41    40    1
    46    42    41    1
    47    43    12    1
    48    43    42    1
    49    44    43    2
    50    45    44    1
    51    46    45    1
    52    46    47    1
    53    48    46    1
    54    48    49    1
    55    50    48    1
    56    50    12    1
