@<TRIPOS>MOLECULE
5OA0_SY9_C601
 25 31 0 0 0
SMALL
GASTEIGER

@<TRIPOS>ATOM
      1 C         167.7220  122.7280  185.4510 C.3     1  UNL1        0.0634
      2 C         166.8130  121.7410  184.7260 C.3     1  UNL1        0.0205
      3 C         166.0150  122.5050  183.6580 C.3     1  UNL1        0.0247
      4 C         167.0320  122.8990  182.5790 C.3     1  UNL1        0.0504
      5 C         168.1290  123.8240  183.1140 C.3     1  UNL1        0.0873
      6 N         169.2870  123.6770  182.1900 N.am    1  UNL1       -0.2601
      7 C         170.3840  123.0880  182.8860 C.ar    1  UNL1        0.0498
      8 C         171.6390  122.7310  182.3990 C.ar    1  UNL1        0.0146
      9 C         172.5400  122.1300  183.2640 C.ar    1  UNL1        0.0013
     10 C         172.1940  121.8850  184.5880 C.ar    1  UNL1       -0.0002
     11 C         170.9450  122.2510  185.0710 C.ar    1  UNL1       -0.0030
     12 C         170.0390  122.8670  184.2170 C.ar    1  UNL1       -0.0062
     13 C         168.7090  123.5020  184.5350 C.3     1  UNL1        0.0520
     14 C         168.9350  124.7810  185.3660 C.3     1  UNL1        0.0243
     15 C         167.5770  125.0830  185.9670 C.3     1  UNL1        0.0728
     16 N         166.9280  123.7790  186.1670 N.3     1  UNL1       -0.2702
     17 C         165.5020  123.7950  185.7860 C.3     1  UNL1        0.0946
     18 C         165.2930  123.6850  184.2960 C.2     1  UNL1       -0.0303
     19 C         164.5960  124.5700  183.5900 C.2     1  UNL1       -0.0015
     20 C         164.4560  124.5020  182.0960 C.3     1  UNL1        0.1677
     21 O         165.7210  124.6900  181.4280 O.3     1  UNL1       -0.3509
     22 C         166.5070  123.5030  181.2680 C.3     1  UNL1        0.1266
     23 C         167.6780  123.9160  180.3510 C.3     1  UNL1        0.1151
     24 C         169.0950  123.6950  180.8310 C.2     1  UNL1        0.2318
     25 O         170.0140  123.5740  180.0340 O.2     1  UNL1       -0.2744
@<TRIPOS>BOND
     1     1     2    1
     2     3     2    1
     3     4     3    1
     4     5     4    1
     5     5     6    1
     6     7     6    1
     7     8     7   ar
     8     9     8   ar
     9    10     9   ar
    10    11    10   ar
    11    12    11   ar
    12    12     7   ar
    13    13     5    1
    14    13     1    1
    15    13    12    1
    16    13    14    1
    17    15    14    1
    18    16    15    1
    19    16     1    1
    20    17    16    1
    21    18     3    1
    22    18    17    1
    23    19    18    2
    24    20    19    1
    25    21    20    1
    26    22    21    1
    27     4    22    1
    28    22    23    1
    29    24    23    1
    30    24     6   am
    31    25    24    2
