@<TRIPOS>MOLECULE
5UFW_86V_B601
 34 38 0 0 0
SMALL
GASTEIGER

@<TRIPOS>ATOM
      1 C          28.6200   -2.8670    6.1920 C.3     1  UNL1        0.0722
      2 C          27.4820   -2.0000    5.7190 C.3     1  UNL1        0.0174
      3 C          27.9210   -1.2210    4.4290 C.3     1  UNL1        0.0015
      4 C          26.3430   -2.8490    5.4510 C.3     1  UNL1        0.0187
      5 C          26.6830   -4.1600    6.1570 C.3     1  UNL1        0.0722
      6 N          28.1280   -4.2260    6.0650 N.3     1  UNL1       -0.2696
      7 C          28.7050   -5.0130    7.0740 C.3     1  UNL1        0.1200
      8 C          28.4830   -6.5220    6.7890 C.3     1  UNL1        0.2226
      9 O          27.1650   -6.8600    7.3020 O.3     1  UNL1       -0.4740
     10 C          26.6810   -8.1790    7.0150 C.ar    1  UNL1        0.1386
     11 C          27.6650   -9.2940    6.7020 C.ar    1  UNL1        0.0367
     12 C          27.2010  -10.5540    6.4410 C.ar    1  UNL1        0.0026
     13 C          25.3440   -8.4280    7.0440 C.ar    1  UNL1        0.0367
     14 C          24.8290   -9.8400    6.7400 C.ar    1  UNL1        0.0026
     15 C          25.7050  -10.8520    6.4500 C.ar    1  UNL1        0.0217
     16 C          25.2890  -12.1510    6.1790 C.3     1  UNL1        0.2102
     17 O          24.9020  -12.2020    4.8970 O.3     1  UNL1       -0.4702
     18 C          23.7830  -11.8160    4.3080 C.ar    1  UNL1        0.1421
     19 C          23.8260  -11.4050    2.9750 C.ar    1  UNL1        0.0789
     20 C          22.5840  -10.9670    2.3160 C.ar    1  UNL1        0.1988
     21 O          22.6350  -10.5550    0.9680 O.3     1  UNL1       -0.2865
     22 C          21.4730  -10.9550    2.9650 C.ar    1  UNL1        0.0422
     23 C          21.4460  -11.3980    4.3940 C.ar    1  UNL1        0.0060
     24 C          22.6270  -11.8080    5.0080 C.ar    1  UNL1        0.0301
     25 C          22.6370  -12.2120    6.3310 C.2     1  UNL1       -0.0192
     26 C          21.3310  -12.4360    7.0810 C.3     1  UNL1        0.0309
     27 C          23.9070  -12.3630    6.9820 C.2     1  UNL1        0.0176
     28 C          24.1150  -12.4530    8.4830 C.ar    1  UNL1       -0.0004
     29 C          23.5440  -11.5730    9.3500 C.ar    1  UNL1        0.0031
     30 C          23.8170  -11.6920   10.8400 C.ar    1  UNL1        0.0420
     31 C          24.6420  -12.6580   11.2870 C.ar    1  UNL1        0.1957
     32 O          24.9150  -12.7900   12.6690 O.3     1  UNL1       -0.2866
     33 C          25.2950  -13.6210   10.3150 C.ar    1  UNL1        0.0420
     34 C          25.0520  -13.5230    8.9870 C.ar    1  UNL1        0.0031
@<TRIPOS>BOND
     1     2     1    1
     2     2     3    1
     3     4     2    1
     4     5     4    1
     5     6     5    1
     6     6     1    1
     7     7     6    1
     8     8     7    1
     9     9     8    1
    10    10     9    1
    11    11    10   ar
    12    12    11   ar
    13    13    10   ar
    14    14    13   ar
    15    15    14   ar
    16    15    12   ar
    17    16    15    1
    18    17    16    1
    19    18    17    1
    20    19    18   ar
    21    20    19   ar
    22    21    20    1
    23    22    20   ar
    24    23    22   ar
    25    24    23   ar
    26    24    18   ar
    27    25    24    1
    28    26    25    1
    29    27    25    2
    30    27    16    1
    31    28    27    1
    32    29    28   ar
    33    30    29   ar
    34    31    30   ar
    35    32    31    1
    36    33    31   ar
    37    34    33   ar
    38    34    28   ar
