@<TRIPOS>MOLECULE
6CHZ_F3D_A601
 37 40 0 0 0
SMALL
GASTEIGER

@<TRIPOS>ATOM
      1 C          23.5000  -13.9620    7.2970 C.3     1  UNL1        0.0264
      2 N          32.1350   -0.7560    3.9010 N.am    1  UNL1       -0.2760
      3 C          24.3140  -12.7030    7.6020 C.2     1  UNL1       -0.0222
      4 N          21.4080  -11.1200    1.9050 N.ar    1  UNL1       -0.1479
      5 C          24.5070  -11.6440    6.5610 C.2     1  UNL1       -0.0040
      6 C          25.4350  -10.5500    6.7380 C.ar    1  UNL1       -0.0001
      7 C          26.7530  -10.8230    7.0740 C.ar    1  UNL1        0.0031
      8 O          30.2330   -1.3390    5.1240 O.2     1  UNL1       -0.2749
      9 C          27.6700   -9.8100    7.2070 C.ar    1  UNL1        0.0369
     10 C          27.3740   -8.4360    7.0480 C.ar    1  UNL1        0.1386
     11 C          28.2260   -6.2320    7.9000 C.3     1  UNL1        0.2241
     12 C          29.0150   -5.1070    7.1980 C.3     1  UNL1        0.1359
     13 C          31.2800   -4.2350    6.6800 C.3     1  UNL1        0.0893
     14 C          31.5290   -2.7850    7.1800 C.3     1  UNL1        0.0284
     15 C          32.3440   -1.9530    6.1370 C.3     1  UNL1        0.0868
     16 C          31.4690   -1.3220    4.9960 C.2     1  UNL1        0.2258
     17 C          31.3620   -0.1660    2.7780 C.3     1  UNL1        0.1149
     18 C          33.6120   -0.7570    3.8040 C.3     1  UNL1        0.1149
     19 N          30.4310   -5.0710    7.6020 N.3     1  UNL1       -0.2141
     20 O          28.3370   -7.4970    7.2240 O.3     1  UNL1       -0.4739
     21 C          26.0490   -8.1120    6.7470 C.ar    1  UNL1        0.0369
     22 C          25.1450   -9.1960    6.6150 C.ar    1  UNL1        0.0031
     23 C          22.1500  -13.9900    8.0400 C.3     1  UNL1        0.0050
     24 C          24.9400  -12.6830    8.8650 C.ar    1  UNL1       -0.0040
     25 C          24.6920  -11.5770    9.6830 C.ar    1  UNL1       -0.0003
     26 C          25.2530  -11.5320   10.9640 C.ar    1  UNL1       -0.0000
     27 C          26.0320  -12.5750   11.4910 C.ar    1  UNL1       -0.0000
     28 C          26.2880  -13.6750   10.6900 C.ar    1  UNL1       -0.0000
     29 C          25.7050  -13.7260    9.3980 C.ar    1  UNL1       -0.0003
     30 C          23.7610  -11.6080    5.3410 C.ar    1  UNL1       -0.0002
     31 C          22.3910  -11.7270    5.2430 C.ar    1  UNL1        0.0032
     32 C          21.7530  -11.6230    4.0670 C.ar    1  UNL1        0.0403
     33 C          20.4690  -11.7210    3.8050 C.ar    1  UNL1        0.1237
     34 N          20.2250  -11.4820    2.5250 N.ar    1  UNL1       -0.1464
     35 C          22.3530  -11.2430    2.8880 C.ar    1  UNL1        0.1044
     36 C          23.6830  -11.0680    2.9330 C.ar    1  UNL1        0.0210
     37 C          24.3770  -11.1980    4.1310 C.ar    1  UNL1        0.0016
@<TRIPOS>BOND
     1     3     1    1
     2     5     3    2
     3     6     5    1
     4     7     6   ar
     5     9     7   ar
     6    10     9   ar
     7    12    11    1
     8    14    13    1
     9    15    14    1
    10    16     8    2
    11    16     2   am
    12    16    15    1
    13    17     2    1
    14    18     2    1
    15    19    13    1
    16    19    12    1
    17    20    11    1
    18    20    10    1
    19    21    10   ar
    20    22    21   ar
    21    22     6   ar
    22    23     1    1
    23    24     3    1
    24    25    24   ar
    25    26    25   ar
    26    27    26   ar
    27    28    27   ar
    28    29    28   ar
    29    29    24   ar
    30    30     5    1
    31    31    30   ar
    32    32    31   ar
    33    33    32   ar
    34    34    33   ar
    35    34     4   ar
    36    35    32   ar
    37    35     4   ar
    38    36    35   ar
    39    37    36   ar
    40    37    30   ar
