@<TRIPOS>MOLECULE
6OWC_ND1_A601
 41 44 0 0 0
SMALL
GASTEIGER

@<TRIPOS>ATOM
      1 C          26.1710   -8.3900    6.9780 C.ar    1  UNL1        0.0577
      2 C          25.3100   -9.4570    6.9500 C.ar    1  UNL1        0.0063
      3 C          27.6710   -2.6460   12.1210 C.3     1  UNL1        0.1152
      4 N          29.0960   -3.0730   12.0430 N.am    1  UNL1       -0.2726
      5 C          30.1270   -2.4860   12.9400 C.3     1  UNL1        0.1152
      6 C          29.4050   -4.0170   11.0940 C.2     1  UNL1        0.2490
      7 O          28.5390   -4.5150   10.3710 O.2     1  UNL1       -0.2699
      8 C          30.8640   -4.5660   11.0010 C.2     1  UNL1        0.0548
      9 C          31.3460   -4.8310    9.5550 C.2     1  UNL1       -0.0027
     10 C          30.5460   -5.8480    8.6780 C.3     1  UNL1        0.1150
     11 N          29.7300   -5.0230    7.8090 N.3     1  UNL1       -0.2094
     12 C          29.1880   -5.5080    6.5570 C.3     1  UNL1        0.1363
     13 C          27.8600   -6.2440    6.7790 C.3     1  UNL1        0.2258
     14 O          28.3390   -7.5620    7.1210 O.3     1  UNL1       -0.4586
     15 C          27.4990   -8.6110    7.0450 C.ar    1  UNL1        0.2249
     16 N          27.9950   -9.8860    7.1990 N.ar    1  UNL1       -0.2101
     17 C          27.0910  -11.0060    7.1530 C.ar    1  UNL1        0.1020
     18 C          25.6880  -10.7470    7.0760 C.ar    1  UNL1        0.0191
     19 C          24.7440  -11.8220    6.9410 C.2     1  UNL1       -0.0022
     20 C          24.7640  -12.9480    7.8710 C.2     1  UNL1       -0.0137
     21 C          23.9830  -14.2130    7.6070 C.3     1  UNL1        0.1297
     22 C          22.8500  -14.4870    8.6250 C.3     1  UNL1        0.4017
     23 F          22.0510  -13.4720    8.7210 F       1  UNL1       -0.1697
     24 F          22.2360  -15.5730    8.0490 F       1  UNL1       -0.1697
     25 F          23.3630  -14.7510    9.7890 F       1  UNL1       -0.1697
     26 C          25.4620  -12.8930    9.1050 C.ar    1  UNL1       -0.0037
     27 C          25.1020  -11.8830    9.9800 C.ar    1  UNL1       -0.0003
     28 C          25.7440  -11.7990   11.2180 C.ar    1  UNL1       -0.0000
     29 C          26.7050  -12.7230   11.5610 C.ar    1  UNL1       -0.0000
     30 C          27.1050  -13.7140   10.6710 C.ar    1  UNL1       -0.0000
     31 C          26.4400  -13.7950    9.4420 C.ar    1  UNL1       -0.0003
     32 C          23.9590  -11.7870    5.7490 C.ar    1  UNL1       -0.0000
     33 C          22.5240  -11.8950    5.7010 C.ar    1  UNL1        0.0054
     34 C          21.8560  -11.7810    4.5090 C.ar    1  UNL1        0.0669
     35 C          20.5330  -11.8510    4.1610 C.ar    1  UNL1        0.2430
     36 F          19.4940  -12.0770    5.0570 F       1  UNL1       -0.1815
     37 N          20.3120  -11.6940    2.8810 N.ar    1  UNL1       -0.1178
     38 N          21.5810  -11.4800    2.3960 N.ar    1  UNL1       -0.1457
     39 C          22.4990  -11.5320    3.3740 C.ar    1  UNL1        0.1067
     40 C          23.8540  -11.3790    3.3640 C.ar    1  UNL1        0.0210
     41 C          24.5630  -11.5090    4.5290 C.ar    1  UNL1        0.0016
@<TRIPOS>BOND
     1     2     1   ar
     2     4     3    1
     3     5     4    1
     4     6     4   am
     5     7     6    2
     6     8     6    1
     7     9     8    2
     8    10     9    1
     9    11    10    1
    10    12    11    1
    11    13    12    1
    12    14    13    1
    13    15     1   ar
    14    15    14    1
    15    16    15   ar
    16    17    16   ar
    17    18    17   ar
    18    18     2   ar
    19    19    18    1
    20    20    19    2
    21    21    20    1
    22    22    21    1
    23    22    23    1
    24    24    22    1
    25    25    22    1
    26    26    20    1
    27    27    26   ar
    28    28    27   ar
    29    29    28   ar
    30    30    29   ar
    31    31    30   ar
    32    31    26   ar
    33    32    19    1
    34    33    32   ar
    35    34    33   ar
    36    35    34   ar
    37    36    35    1
    38    37    35   ar
    39    38    37   ar
    40    39    38   ar
    41    39    34   ar
    42    40    39   ar
    43    41    40   ar
    44    41    32   ar
