@<TRIPOS>MOLECULE
6SQ0_LRQ_A601
 30 34 0 0 0
SMALL
GASTEIGER

@<TRIPOS>ATOM
      1  C1        25.7470  -11.6380   12.0020 C.3   601  LRQ601      0.0368
      2  C2        24.8030  -11.4010   10.8430 C.3   601  LRQ601      0.1486
      3  C3        24.7530   -9.9200   10.5130 C.3   601  LRQ601      0.0368
      4  C8        23.7480  -14.3630    8.1680 C.3   601  LRQ601      0.0164
      5  C9        24.7040  -14.4920    6.9830 C.3   601  LRQ601      0.0035
      6  C10       25.8650  -13.5110    7.0780 C.3   601  LRQ601      0.0248
      7  C11       25.2910  -12.0810    7.1850 C.3   601  LRQ601      0.1035
      8  C12       24.4000  -11.9540    5.9830 C.2   601  LRQ601      0.0671
      9  C13       23.0460  -12.1210    6.0240 C.2   601  LRQ601     -0.0079
     10  C14       22.5590  -11.9130    4.6890 C.2   601  LRQ601      0.0012
     11  C15       21.3020  -11.9390    4.0920 C.2   601  LRQ601     -0.0024
     12  C16       21.1790  -11.6830    2.7350 C.2   601  LRQ601     -0.0005
     13  C19       23.6780  -11.6280    3.8880 C.3   601  LRQ601      0.1468
     14  C21       22.3130  -12.4550    7.2850 C.3   601  LRQ601      0.0433
     15  C22       26.2200  -10.8610    7.2150 C.ar  601  LRQ601      0.0508
     16  C24       28.3810   -9.7600    7.4090 C.ar  601  LRQ601      0.0253
     17  C27       25.6640   -9.5690    7.0860 C.ar  601  LRQ601      0.1395
     18  F35       23.5500  -11.8220   11.2520 F     601  LRQ601     -0.2386
     19  C4        25.3010  -12.2360    9.6070 C.3   601  LRQ601      0.1054
     20  N5        24.4810  -12.0330    8.4050 N.3   601  LRQ601     -0.2658
     21  N20       24.7980  -11.6630    4.6990 N.2   601  LRQ601     -0.2665
     22  C18       23.5590  -11.3720    2.5300 C.2   601  LRQ601      0.0021
     23  C17       22.2950  -11.4040    1.9620 C.2   601  LRQ601     -0.0023
     24  C6        23.2990  -12.9220    8.3620 C.3   601  LRQ601      0.0625
     25  F28       24.3290   -9.4680    6.9310 F     601  LRQ601     -0.2044
     26  C26       26.4030   -8.4150    7.1090 C.ar  601  LRQ601      0.0253
     27  C25       27.7870   -8.5030    7.2730 C.ar  601  LRQ601     -0.0174
     28  C23       27.5960  -10.8840    7.3800 C.ar  601  LRQ601      0.1395
     29  F34       28.1880  -12.0920    7.5110 F     601  LRQ601     -0.2044
     30  C29       28.6010   -7.2860    7.3010 C.3   601  LRQ601      0.0312
@<TRIPOS>BOND
     1    23    22    2
     2    23    12    1
     3    22    13    1
     4    12    11    2
     5    13    10    1
     6    13    21    1
     7    11    10    1
     8    10     9    2
     9    21     8    2
    10     8     9    1
    11     8     7    1
    12     9    14    1
    13    25    17    1
    14     5     6    1
    15     5     4    1
    16     6     7    1
    17    17    26   ar
    18    17    15   ar
    19    26    27   ar
    20     7    15    1
    21     7    20    1
    22    15    28   ar
    23    27    30    1
    24    27    16   ar
    25    14    24    1
    26    28    16   ar
    27    28    29    1
    28     4    24    1
    29    24    20    1
    30    20    19    1
    31    19     2    1
    32     3     2    1
    33     2    18    1
    34     2     1    1
