@<TRIPOS>MOLECULE
6SUO_LVH_B601
 33 36 0 0 0
SMALL
GASTEIGER

@<TRIPOS>ATOM
      1 C          22.9260  -12.7710    8.1870 C.3     1  UNL1        0.0625
      2 C          22.0490  -12.1860    7.0800 C.3     1  UNL1        0.0436
      3 C          22.8290  -12.0010    5.8110 C.ar    1  UNL1       -0.0043
      4 C          22.1660  -11.3520    1.7150 C.ar    1  UNL1        0.0015
      5 C          21.0180  -11.5050    2.4900 C.ar    1  UNL1        0.0001
      6 C          21.1120  -11.7190    3.8620 C.ar    1  UNL1        0.0012
      7 C          22.3680  -11.7820    4.4680 C.ar    1  UNL1        0.0149
      8 C          25.1260  -12.0490    6.9730 C.3     1  UNL1        0.1040
      9 C          25.8940  -13.3500    6.7080 C.3     1  UNL1        0.0268
     10 C          25.0230  -12.3640    9.4760 C.3     1  UNL1        0.1054
     11 C          24.6890  -11.5620   10.7240 C.3     1  UNL1        0.1486
     12 C          24.8960  -10.0800   10.5190 C.3     1  UNL1        0.0368
     13 C          23.2880  -11.8350   11.2080 C.3     1  UNL1        0.0368
     14 C          28.0660   -9.5330    7.5760 C.ar    1  UNL1        0.0295
     15 C          27.4250   -8.3040    7.3880 C.ar    1  UNL1        0.0047
     16 C          28.1680   -7.0440    7.5290 C.2     1  UNL1        0.0069
     17 C          29.4670   -6.8890    7.7950 C.2     1  UNL1        0.0861
     18 C          26.0540   -8.2720    7.1130 C.ar    1  UNL1        0.0295
     19 F          24.0390   -9.3690    6.7330 F       1  UNL1       -0.2044
     20 C          25.3620   -9.4500    6.9780 C.ar    1  UNL1        0.1399
     21 C          30.1150   -5.5620    7.9380 C.2     1  UNL1        0.3880
     22 O          31.3930   -5.5980    8.2000 O.co2   1  UNL1       -0.2405
     23 O          29.4890   -4.5080    7.8160 O.co2   1  UNL1       -0.2405
     24 C          27.3690  -10.7010    7.3920 C.ar    1  UNL1        0.1399
     25 F          28.0440  -11.8650    7.5250 F       1  UNL1       -0.2044
     26 C          25.9710  -10.7760    7.0820 C.ar    1  UNL1        0.0508
     27 N          24.2820  -12.1500    8.2220 N.3     1  UNL1       -0.2658
     28 F          25.5410  -11.9440   11.7360 F       1  UNL1       -0.2386
     29 C          22.9150  -14.2950    8.1670 C.3     1  UNL1        0.0177
     30 C          24.1960  -11.9310    5.7810 C.ar    1  UNL1        0.0719
     31 N          24.6240  -11.6870    4.4930 N.ar    1  UNL1       -0.2484
     32 C          23.5140  -11.6170    3.6670 C.ar    1  UNL1        0.0807
     33 C          23.4260  -11.4240    2.2900 C.ar    1  UNL1        0.0191
@<TRIPOS>BOND
     1     2     1    1
     2     3     2    1
     3     5     4   ar
     4     6     5   ar
     5     7     6   ar
     6     7     3   ar
     7     8     9    1
     8    11    10    1
     9    11    12    1
    10    13    11    1
    11    15    14   ar
    12    16    15    1
    13    17    16    2
    14    18    15   ar
    15    20    19    1
    16    20    18   ar
    17    21    17    1
    18    22    21   ar
    19    23    21   ar
    20    24    14   ar
    21    25    24    1
    22    26     8    1
    23    26    20   ar
    24    26    24   ar
    25    27    10    1
    26    27     8    1
    27    27     1    1
    28    28    11    1
    29     1    29    1
    30    30     8    1
    31    30     3   ar
    32    31    30   ar
    33    32    31   ar
    34    32     7   ar
    35    33    32   ar
    36    33     4   ar
