@<TRIPOS>MOLECULE
6ZOQ_QNE_B601
 36 41 0 0 0
SMALL
GASTEIGER

@<TRIPOS>ATOM
      1 C          26.9510  -11.0640    7.0920 C.ar    1  UNL1        0.1376
      2 C          27.7950   -9.9790    7.2420 C.ar    1  UNL1        0.0527
      3 C          27.2810   -8.6910    7.1520 C.ar    1  UNL1        0.0683
      4 C          29.5970   -2.5570    6.3980 C.3     1  UNL1        0.0554
      5 C          29.7850   -1.3640    5.4540 C.3     1  UNL1        0.1947
      6 C          27.2190   -5.4700    6.2100 C.3     1  UNL1        0.0954
      7 C          25.9260   -8.5090    6.9180 C.ar    1  UNL1        0.0160
      8 C          25.0940   -9.6020    6.7740 C.ar    1  UNL1        0.0017
      9 C          25.5890  -10.8990    6.8530 C.ar    1  UNL1        0.0304
     10 C          24.6860  -12.1200    6.7000 C.3     1  UNL1        0.1057
     11 C          23.9080  -11.2310    8.8580 C.3     1  UNL1        0.1054
     12 C          24.1820  -11.4330   10.3440 C.3     1  UNL1        0.1486
     13 C          25.4890  -11.8770   10.8600 C.3     1  UNL1        0.0368
     14 C          22.7400  -14.5070    7.4370 C.3     1  UNL1        0.0177
     15 C          21.7090  -12.3100    6.7540 C.3     1  UNL1        0.0421
     16 C          22.4490  -11.9840    5.4820 C.ar    1  UNL1       -0.0201
     17 C          23.8490  -11.8910    5.4560 C.ar    1  UNL1       -0.0073
     18 C          23.8020  -11.3790    3.0870 C.ar    1  UNL1        0.0207
     19 C          21.7130  -11.7700    4.2970 C.ar    1  UNL1        0.0362
     20 F          23.0630  -11.8260   11.0710 F       1  UNL1       -0.2386
     21 C          25.0620  -10.4500   11.0030 C.3     1  UNL1        0.0368
     22 N          23.8740  -12.3490    7.9120 N.3     1  UNL1       -0.2655
     23 C          22.5750  -13.0360    7.7660 C.3     1  UNL1        0.0625
     24 C          20.3550  -11.7670    3.9050 C.ar    1  UNL1        0.1233
     25 N          20.2220  -11.4960    2.6220 N.ar    1  UNL1       -0.1464
     26 N          21.4860  -11.3140    2.1420 N.ar    1  UNL1       -0.1479
     27 C          22.4180  -11.4710    3.1160 C.ar    1  UNL1        0.1041
     28 C          24.4990  -11.5960    4.2600 C.ar    1  UNL1       -0.0014
     29 O          27.3790  -12.3590    7.1670 O.3     1  UNL1       -0.4716
     30 C          28.7350  -12.5810    7.5320 C.3     1  UNL1        0.2525
     31 N          28.1260   -7.5990    7.3090 N.pl3   1  UNL1       -0.2364
     32 C          28.3100   -6.5440    6.3220 C.3     1  UNL1        0.1243
     33 N          28.1160   -4.5060    6.8940 N.3     1  UNL1       -0.2696
     34 C          29.2760   -5.4080    6.6900 C.3     1  UNL1        0.0954
     35 C          28.2160   -3.1780    6.2810 C.3     1  UNL1        0.0751
     36 F          28.6190   -0.6160    5.4040 F       1  UNL1       -0.2343
@<TRIPOS>BOND
     1     2     1   ar
     2     3     2   ar
     3     5     4    1
     4     7     3   ar
     5     8     7   ar
     6     9     1   ar
     7     9     8   ar
     8    10     9    1
     9    12    11    1
    10    13    12    1
    11    16    15    1
    12    17    16   ar
    13    17    10    1
    14    19    16   ar
    15    12    20    1
    16    21    13    1
    17    21    12    1
    18    22    11    1
    19    22    10    1
    20    23    15    1
    21    23    22    1
    22    23    14    1
    23    24    19   ar
    24    25    24   ar
    25    26    25   ar
    26    27    26   ar
    27    27    19   ar
    28    27    18   ar
    29    28    18   ar
    30    28    17   ar
    31    29     1    1
    32    30    29    1
    33    31     3    1
    34    32     6    1
    35    32    31    1
    36    33     6    1
    37    34    32    1
    38    34    33    1
    39    35    33    1
    40    35     4    1
    41    36     5    1
