@<TRIPOS>MOLECULE
7TE7_I0V_A601
 34 37 0 0 0
SMALL
GASTEIGER

@<TRIPOS>ATOM
      1 C          27.0380  -10.6510    7.6350 C.ar    1  UNL1       -0.0024
      2 C          27.8360   -8.1520    6.8650 C.ar    1  UNL1       -0.0208
      3 C          27.2640   -5.8090    6.0820 C.3     1  UNL1        0.0934
      4 C          26.6710   -3.5430    5.9460 C.3     1  UNL1        0.0888
      5 C          28.3740  -10.2890    7.7250 C.ar    1  UNL1       -0.0029
      6 C          24.3180  -16.1730    9.7890 C.ar    1  UNL1        0.0367
      7 C          23.6310  -15.3400    8.9160 C.ar    1  UNL1        0.0001
      8 C          23.3030  -13.1270    7.7060 C.3     1  UNL1        0.0282
      9 C          21.0520  -12.6560    6.7560 C.3     1  UNL1        0.0265
     10 C          20.9380  -11.7540    4.3460 C.ar    1  UNL1        0.0375
     11 C          26.9870  -15.8580   12.2350 C.3     1  UNL1        0.2525
     12 C          25.4510  -15.7040   10.4560 C.ar    1  UNL1        0.1399
     13 C          25.9120  -14.4040   10.2300 C.ar    1  UNL1        0.0511
     14 C          25.2190  -13.5750    9.3650 C.ar    1  UNL1        0.0471
     15 C          25.5310  -11.1710   10.1580 C.3     1  UNL1        0.0911
     16 C          24.1650  -11.3240   10.8140 C.3     1  UNL1        0.0232
     17 C          26.7120  -12.0980    8.0700 C.3     1  UNL1        0.1177
     18 C          26.0970   -9.7810    7.1550 C.ar    1  UNL1       -0.0029
     19 C          26.4840   -8.4940    6.7650 C.ar    1  UNL1       -0.0045
     20 C          28.3860   -6.7800    6.4640 C.3     1  UNL1        0.0451
     21 C          25.6200   -3.9490    4.9180 C.3     1  UNL1        0.0203
     22 C          28.7500   -9.0300    7.3340 C.ar    1  UNL1       -0.0045
     23 C          24.0850  -14.0390    8.6840 C.ar    1  UNL1       -0.0086
     24 C          21.8760  -13.6130    7.5870 C.3     1  UNL1        0.0094
     25 C          21.7410  -12.2930    5.4200 C.ar    1  UNL1       -0.0229
     26 C          21.5400  -11.4140    3.1240 C.ar    1  UNL1        0.1954
     27 C          22.9240  -11.6260    2.9460 C.ar    1  UNL1        0.0417
     28 C          23.7100  -12.1500    3.9860 C.ar    1  UNL1       -0.0013
     29 C          23.0940  -12.4960    5.2370 C.ar    1  UNL1       -0.0256
     30 C          23.9950  -13.0930    6.3510 C.3     1  UNL1        0.0304
     31 N          25.7850  -12.2410    9.1940 N.pl3   1  UNL1       -0.3038
     32 N          27.7930   -4.4680    5.9630 N.3     1  UNL1       -0.2177
     33 O          26.1450  -16.5340   11.3400 O.3     1  UNL1       -0.4714
     34 O          20.7580  -10.8680    2.0730 O.3     1  UNL1       -0.2866
@<TRIPOS>BOND
     1     5     1   ar
     2     7     6   ar
     3    12     6   ar
     4    13    12   ar
     5    14    13   ar
     6    16    15    1
     7    17     1    1
     8    18     1   ar
     9    19    18   ar
    10    19     2   ar
    11    20     3    1
    12    20     2    1
    13    21     4    1
    14    22     5   ar
    15    22     2   ar
    16    23    14   ar
    17     8    23    1
    18    23     7   ar
    19    24     9    1
    20    24     8    1
    21    25    10   ar
    22    25     9    1
    23    26    10   ar
    24    27    26   ar
    25    28    27   ar
    26    29    25   ar
    27    29    28   ar
    28    30    29    1
    29    30     8    1
    30    31    17    1
    31    31    15    1
    32    31    14    1
    33    32     4    1
    34    32     3    1
    35    33    12    1
    36    33    11    1
    37    34    26    1
