@<TRIPOS>MOLECULE
4XP1_LDP_A708
 22 22 0 0 0
SMALL
GASTEIGER

@<TRIPOS>ATOM
      1 C         130.8820  129.3490  132.3050 C.3     1  UNL1       -0.0152
      2 C         130.9480  130.3830  131.2010 C.ar    1  UNL1       -0.0425
      3 C         130.9750  132.2910  129.1980 C.ar    1  UNL1        0.1582
      4 C         132.1260  130.6520  130.5170 C.ar    1  UNL1       -0.0133
      5 C         129.7890  131.0620  130.8820 C.ar    1  UNL1       -0.0549
      6 C         129.8020  132.0160  129.8830 C.ar    1  UNL1       -0.0163
      7 C         132.1370  131.6120  129.5150 C.ar    1  UNL1        0.1585
      8 O         133.3200  131.9020  128.8090 O.3     1  UNL1       -0.5033
      9 O         130.9760  133.2650  128.1810 O.3     1  UNL1       -0.5033
     10 C         132.2140  129.2720  133.0180 C.3     1  UNL1       -0.0029
     11 N         132.0670  128.5460  134.2370 N.3     1  UNL1       -0.3297
     12 H         130.6680  128.4750  131.9200 H       1  UNL1        0.0325
     13 H         130.1850  129.6000  132.9440 H       1  UNL1        0.0325
     14 H         132.9450  130.1720  130.7440 H       1  UNL1        0.0658
     15 H         128.9630  130.8710  131.3640 H       1  UNL1        0.0621
     16 H         128.9820  132.4970  129.6580 H       1  UNL1        0.0655
     17 H         133.3480  131.4140  128.0670 H       1  UNL1        0.2923
     18 H         130.7770  134.0580  128.5300 H       1  UNL1        0.2923
     19 H         132.5310  130.1780  133.2150 H       1  UNL1        0.0425
     20 H         132.8640  128.8160  132.4440 H       1  UNL1        0.0425
     21 H         132.4460  129.0210  134.9230 H       1  UNL1        0.1182
     22 H         132.4830  127.7330  134.1610 H       1  UNL1        0.1182
@<TRIPOS>BOND
     1     2     1    1
     2     4     2   ar
     3     5     2   ar
     4     6     5   ar
     5     6     3   ar
     6     7     4   ar
     7     7     3   ar
     8     8     7    1
     9     9     3    1
    10    10     1    1
    11    11    10    1
    12     1    12    1
    13    13     1    1
    14    14     4    1
    15    15     5    1
    16    16     6    1
    17    17     8    1
    18    18     9    1
    19    10    19    1
    20    20    10    1
    21    21    11    1
    22    22    11    1
