@<TRIPOS>MOLECULE
6M0Z_LNR_A707
 23 23 0 0 0
SMALL
GASTEIGER

@<TRIPOS>ATOM
      1  OAC      127.5810  132.1130  131.9880 O.3   707  LNR707     -0.5033
      2  CAJ      128.7840  131.3110  131.9290 C.ar  707  LNR707      0.1586
      3  CAG      129.0940  130.3640  132.9840 C.ar  707  LNR707     -0.0109
      4  CAI      129.6310  131.4440  130.8830 C.ar  707  LNR707      0.1582
      5  OAB      129.3460  132.3630  129.8450 O.3   707  LNR707     -0.5033
      6  CAE      130.8000  130.6710  130.8190 C.ar  707  LNR707     -0.0162
      7  CAF      131.1030  129.7370  131.8610 C.ar  707  LNR707     -0.0524
      8  CAK      130.2470  129.5950  132.9180 C.ar  707  LNR707     -0.0143
      9  CAL      130.5740  128.6160  134.0080 C.3   707  LNR707      0.0925
     10  OAD      130.0440  129.0660  135.1910 O.3   707  LNR707     -0.3859
     11  CAH      129.9710  127.1560  133.6760 C.3   707  LNR707      0.0235
     12  NAA      129.8100  126.3720  134.9230 N.3   707  LNR707     -0.3274
     13 HOAC      127.7260  132.8110  132.4520 H     707  LNR707      0.2923
     14  HAG      128.5190  130.2710  133.7080 H     707  LNR707      0.0659
     15 HOAB      128.8770  131.9810  129.2490 H     707  LNR707      0.2923
     16  HAE      131.3790  130.7660  130.0970 H     707  LNR707      0.0655
     17  HAF      131.8790  129.2270  131.8190 H     707  LNR707      0.0622
     18  HAL      131.5400  128.5440  134.0790 H     707  LNR707      0.0656
     19 HOAD      130.6740  129.2860  135.7180 H     707  LNR707      0.2103
     20  HAH      130.5730  126.6850  133.0790 H     707  LNR707      0.0451
     21 HAHA      129.1070  127.2530  133.2460 H     707  LNR707      0.0451
     22 HNAA      130.3400  125.6580  134.8890 H     707  LNR707      0.1183
     23 HNAB      130.0450  126.8760  135.6190 H     707  LNR707      0.1183
@<TRIPOS>BOND
     1    15     5    1
     2     5     4    1
     3    16     6    1
     4     6     4   ar
     5     6     7   ar
     6     4     2   ar
     7    17     7    1
     8     7     8   ar
     9     2     1    1
    10     2     3   ar
    11     1    13    1
    12     8     3   ar
    13     8     9    1
    14     3    14    1
    15    20    11    1
    16    21    11    1
    17    11     9    1
    18    11    12    1
    19     9    18    1
    20     9    10    1
    21    22    12    1
    22    12    23    1
    23    10    19    1
