@<TRIPOS>MOLECULE
3NY8_JRZ_A1203
 20 21 0 0 0
SMALL
GASTEIGER

@<TRIPOS>ATOM
      1 C         -25.8950    9.5470    6.3010 C.3     1  UNL1        0.0262
      2 N         -33.7960    7.5850    8.0750 N.3     1  UNL1       -0.2182
      3 O         -30.4220   10.4010    7.8640 O.3     1  UNL1       -0.4730
      4 C         -26.5730    8.3200    6.8500 C.3     1  UNL1        0.0094
      5 O         -34.0780   10.2730    8.0930 O.3     1  UNL1       -0.2176
      6 C         -27.7290    8.7840    7.7100 C.3     1  UNL1        0.0294
      7 C         -28.1360   10.1040    7.0080 C.ar    1  UNL1        0.0075
      8 C         -27.0740   10.5320    6.1980 C.ar    1  UNL1       -0.0272
      9 C         -27.2150   11.6770    5.4250 C.ar    1  UNL1       -0.0259
     10 C         -26.0730   12.1250    4.5230 C.3     1  UNL1        0.0307
     11 C         -28.3930   12.4150    5.4560 C.ar    1  UNL1       -0.0015
     12 C         -29.4580   11.9930    6.2500 C.ar    1  UNL1        0.0362
     13 C         -29.3420   10.8230    7.0150 C.ar    1  UNL1        0.1343
     14 C         -31.7740   10.8090    7.6260 C.3     1  UNL1        0.2394
     15 C         -32.7620    9.8010    8.2770 C.3     1  UNL1        0.2111
     16 C         -32.6190    8.3620    7.6960 C.3     1  UNL1        0.1068
     17 C         -32.5430    8.3910    6.1750 C.3     1  UNL1        0.0216
     18 C         -33.5630    6.1530    8.1310 C.3     1  UNL1        0.0729
     19 C         -34.3190    5.5760    9.3190 C.3     1  UNL1        0.0188
     20 C         -34.1010    5.4940    6.8640 C.3     1  UNL1        0.0188
@<TRIPOS>BOND
     1     4     1    1
     2     6     4    1
     3     7     6    1
     4     8     7   ar
     5     8     1    1
     6     9     8   ar
     7    10     9    1
     8    11     9   ar
     9    12    11   ar
    10    13     7   ar
    11    13     3    1
    12    13    12   ar
    13    14     3    1
    14    15     5    1
    15    15    14    1
    16    16    15    1
    17    16     2    1
    18    16    17    1
    19    18     2    1
    20    18    19    1
    21    20    18    1
