@<TRIPOS>MOLECULE
3NYA_JTZ_A1203
 18 18 0 0 0
SMALL
GASTEIGER

@<TRIPOS>ATOM
      1 C         -33.5530    6.6130    5.5480 C.3     1  UNL1        0.0188
      2 N         -33.5640    7.9870    7.6090 N.3     1  UNL1       -0.2167
      3 O         -33.7050   10.6960    7.8420 O.3     1  UNL1       -0.2176
      4 C         -33.5030    6.6090    7.0760 C.3     1  UNL1        0.0730
      5 O         -30.0960   10.4870    7.3240 O.3     1  UNL1       -0.4730
      6 C         -34.6600    5.8040    7.6610 C.3     1  UNL1        0.0188
      7 C         -32.4000    8.7680    7.1690 C.3     1  UNL1        0.1253
      8 C         -32.3950   10.1190    7.8650 C.3     1  UNL1        0.2126
      9 C         -31.4100   11.0090    7.1350 C.3     1  UNL1        0.2395
     10 C         -29.0170   10.9450    6.6070 C.ar    1  UNL1        0.1350
     11 C         -29.1600   12.0220    5.7340 C.ar    1  UNL1        0.0366
     12 C         -28.0710   12.4830    5.0080 C.ar    1  UNL1        0.0031
     13 C         -26.8300   11.8770    5.1520 C.ar    1  UNL1       -0.0001
     14 C         -26.6790   10.8110    6.0220 C.ar    1  UNL1       -0.0009
     15 C         -27.7700   10.3440    6.7510 C.ar    1  UNL1        0.0162
     16 C         -27.5730    9.1800    7.6950 C.3     1  UNL1        0.0554
     17 C         -26.8940    8.0590    6.9530 C.2     1  UNL1       -0.0213
     18 C         -25.5980    7.8560    7.0870 C.2     1  UNL1       -0.0046
@<TRIPOS>BOND
     1     4     2    1
     2     4     1    1
     3     6     4    1
     4     7     2    1
     5     8     3    1
     6     8     7    1
     7     9     8    1
     8     9     5    1
     9    10     5    1
    10    11    10   ar
    11    12    11   ar
    12    13    12   ar
    13    14    13   ar
    14    15    10   ar
    15    15    14   ar
    16    16    15    1
    17    17    16    1
    18    18    17    2
