@<TRIPOS>MOLECULE
3P0G_P0G_A366
 27 29 0 0 0
SMALL
GASTEIGER

@<TRIPOS>ATOM
      1 C         -34.9750    3.5740    5.6010 C.3     1  UNL1        0.0307
      2 C         -32.7020    6.4590    5.5740 C.3     1  UNL1        0.0178
      3 C         -32.2860    6.0600    8.0150 C.3     1  UNL1        0.0178
      4 O         -25.3670    7.1580    7.1310 O.2     1  UNL1       -0.2689
      5 O         -26.2550   11.6830    5.5260 O.3     1  UNL1       -0.2851
      6 O         -32.1940   10.9310    7.6160 O.3     1  UNL1       -0.2166
      7 C         -35.3800    2.5560    9.2410 C.ar    1  UNL1       -0.0003
      8 C         -35.2210    3.7830    9.8960 C.ar    1  UNL1       -0.0003
      9 C         -35.2920    2.5260    7.8530 C.ar    1  UNL1       -0.0046
     10 C         -34.9920    4.9660    9.1820 C.ar    1  UNL1       -0.0045
     11 C         -28.5310   12.0750    6.1200 C.ar    1  UNL1        0.0434
     12 C         -29.7430   11.6200    6.6220 C.ar    1  UNL1        0.0046
     13 C         -27.4930    7.5720    7.9240 C.3     1  UNL1        0.2915
     14 C         -31.8000    8.7500    6.7460 C.3     1  UNL1        0.1261
     15 C         -34.6770    6.3260    7.1060 C.3     1  UNL1        0.0421
     16 N         -33.0960    8.2240    7.2320 N.3     1  UNL1       -0.2174
     17 N         -26.3560    9.1320    6.5180 N.am    1  UNL1       -0.1697
     18 O         -28.7900    8.1980    7.6320 O.3     1  UNL1       -0.4644
     19 C         -26.3450    7.9090    7.1930 C.2     1  UNL1        0.2903
     20 C         -35.0680    3.7090    7.1280 C.ar    1  UNL1       -0.0258
     21 C         -27.4190   11.2430    6.0710 C.ar    1  UNL1        0.2138
     22 C         -34.9100    4.9540    7.7850 C.ar    1  UNL1       -0.0248
     23 C         -29.8590   10.3250    7.1190 C.ar    1  UNL1        0.0446
     24 C         -27.5000    9.9570    6.5860 C.ar    1  UNL1        0.1458
     25 C         -28.7170    9.4850    7.1250 C.ar    1  UNL1        0.1560
     26 C         -31.2470    9.8600    7.6500 C.3     1  UNL1        0.1945
     27 C         -33.1960    6.7660    6.9920 C.3     1  UNL1        0.0636
@<TRIPOS>BOND
     1     8     7   ar
     2     9     7   ar
     3    10     8   ar
     4    12    11   ar
     5    16    14    1
     6    18    13    1
     7    19    13    1
     8    19    17   am
     9    19     4    2
    10    20     9   ar
    11    20     1    1
    12    21    11   ar
    13    21     5    1
    14    22    20   ar
    15    22    10   ar
    16    22    15    1
    17    23    12   ar
    18    24    21   ar
    19    24    17    1
    20    25    24   ar
    21    25    23   ar
    22    25    18    1
    23    26    23    1
    24    26    14    1
    25    26     6    1
    26    27    16    1
    27    27    15    1
    28    27     2    1
    29    27     3    1
