@<TRIPOS>MOLECULE
5JQH_CAU_B1401
 22 24 0 0 0
SMALL
GASTEIGER

@<TRIPOS>ATOM
      1 O         -33.6760   10.6760    8.1410 O.3     1  UNL1       -0.2176
      2 C         -32.4100   10.0160    8.0950 C.3     1  UNL1        0.2126
      3 C         -32.5250    8.7400    7.2570 C.3     1  UNL1        0.1253
      4 N         -33.4250    7.7650    7.8910 N.3     1  UNL1       -0.2167
      5 C         -33.4350    6.5200    7.1080 C.3     1  UNL1        0.0730
      6 C         -34.0290    6.7470    5.7150 C.3     1  UNL1        0.0188
      7 C         -34.2290    5.4310    7.8290 C.3     1  UNL1        0.0188
      8 C         -31.3710   10.9430    7.4640 C.3     1  UNL1        0.2395
      9 O         -30.1010   10.2840    7.4570 O.3     1  UNL1       -0.4726
     10 C         -29.1970   10.9000    6.6440 C.ar    1  UNL1        0.1401
     11 C         -29.4780   12.1130    6.0280 C.ar    1  UNL1        0.0370
     12 C         -28.5070   12.6750    5.2160 C.ar    1  UNL1        0.0047
     13 C         -27.3070   11.9950    5.0630 C.ar    1  UNL1        0.0193
     14 C         -27.0930   10.8340    5.6780 C.ar    1  UNL1        0.0842
     15 C         -28.0230   10.2830    6.4640 C.ar    1  UNL1        0.0530
     16 N         -26.0340   10.0330    5.6680 N.ar    1  UNL1       -0.2453
     17 C         -26.2920    8.9840    6.4400 C.ar    1  UNL1        0.0814
     18 C         -27.5230    9.1330    6.9360 C.ar    1  UNL1        0.0220
     19 C         -25.5470    7.9220    6.7410 C.ar    1  UNL1        0.0191
     20 C         -26.0310    6.9330    7.5850 C.ar    1  UNL1        0.0015
     21 C         -27.3070    7.0810    8.1040 C.ar    1  UNL1        0.0001
     22 C         -28.0340    8.2090    7.7530 C.ar    1  UNL1        0.0016
@<TRIPOS>BOND
     1     2     1    1
     2     3     2    1
     3     4     3    1
     4     5     4    1
     5     5     6    1
     6     7     5    1
     7     8     2    1
     8     9     8    1
     9    10     9    1
    10    11    10   ar
    11    12    11   ar
    12    13    12   ar
    13    14    13   ar
    14    15    10   ar
    15    15    14   ar
    16    16    14   ar
    17    17    16   ar
    18    18    15   ar
    19    18    17   ar
    20    19    17   ar
    21    20    19   ar
    22    21    20   ar
    23    22    21   ar
    24    22    18   ar
