@<TRIPOS>MOLECULE
6N48_P0G_A1401
 27 29 0 0 0
SMALL
GASTEIGER

@<TRIPOS>ATOM
      1 C         -35.1210    3.6170    6.1650 C.3     1  UNL1        0.0307
      2 C         -33.1030    6.7140    5.4720 C.3     1  UNL1        0.0178
      3 C         -32.2800    5.9610    7.7200 C.3     1  UNL1        0.0178
      4 O         -25.5370    7.3490    7.2240 O.2     1  UNL1       -0.2689
      5 O         -26.4650   11.7100    5.0890 O.3     1  UNL1       -0.2851
      6 O         -32.3380   11.0590    7.8750 O.3     1  UNL1       -0.2166
      7 C         -35.2090    2.8970    9.9430 C.ar    1  UNL1       -0.0003
      8 C         -35.0410    4.1870   10.4880 C.ar    1  UNL1       -0.0003
      9 C         -35.2330    2.7200    8.5420 C.ar    1  UNL1       -0.0046
     10 C         -34.9030    5.3010    9.6480 C.ar    1  UNL1       -0.0045
     11 C         -28.8000   12.1710    5.7770 C.ar    1  UNL1        0.0434
     12 C         -30.0140   11.7350    6.4390 C.ar    1  UNL1        0.0046
     13 C         -27.7640    7.6350    8.0050 C.3     1  UNL1        0.2915
     14 C         -31.9620    8.8440    6.8480 C.3     1  UNL1        0.1261
     15 C         -34.7690    6.3480    7.2900 C.3     1  UNL1        0.0421
     16 N         -33.2070    8.2550    7.4470 N.3     1  UNL1       -0.2174
     17 N         -26.5690    9.1480    6.2790 N.am    1  UNL1       -0.1697
     18 O         -28.9960    8.2150    7.6270 O.3     1  UNL1       -0.4644
     19 C         -26.5910    7.9570    7.0650 C.2     1  UNL1        0.2903
     20 C         -35.0930    3.8180    7.7000 C.ar    1  UNL1       -0.0258
     21 C         -27.6500   11.2910    5.7310 C.ar    1  UNL1        0.2138
     22 C         -34.9170    5.1260    8.2490 C.ar    1  UNL1       -0.0248
     23 C         -30.0710   10.4720    7.0300 C.ar    1  UNL1        0.0446
     24 C         -27.7080   10.0090    6.3300 C.ar    1  UNL1        0.1458
     25 C         -28.9060    9.5780    6.9860 C.ar    1  UNL1        0.1560
     26 C         -31.3700    9.9950    7.7370 C.3     1  UNL1        0.1945
     27 C         -33.3480    6.8120    6.9970 C.3     1  UNL1        0.0636
@<TRIPOS>BOND
     1     8     7   ar
     2     9     7   ar
     3    10     8   ar
     4    12    11   ar
     5    16    14    1
     6    18    13    1
     7    19    13    1
     8    19    17   am
     9    19     4    2
    10    20     9   ar
    11    20     1    1
    12    21    11   ar
    13    21     5    1
    14    22    20   ar
    15    22    10   ar
    16    22    15    1
    17    23    12   ar
    18    24    21   ar
    19    24    17    1
    20    25    24   ar
    21    25    23   ar
    22    25    18    1
    23    26    23    1
    24    26    14    1
    25    26     6    1
    26    27    16    1
    27    27    15    1
    28    27     2    1
    29    27     3    1
