@<TRIPOS>MOLECULE
6PRZ_JTZ_A1201
 18 18 0 0 0
SMALL
GASTEIGER

@<TRIPOS>ATOM
      1 C         -33.8190    6.5960    5.3830 C.3     1  UNL1        0.0188
      2 N         -33.2610    8.0740    7.3450 N.3     1  UNL1       -0.2167
      3 O         -32.9240   10.7560    8.0670 O.3     1  UNL1       -0.2176
      4 C         -33.4780    6.6510    6.8750 C.3     1  UNL1        0.0730
      5 O         -29.5370   10.0960    6.8660 O.3     1  UNL1       -0.4730
      6 C         -34.6440    6.1050    7.6990 C.3     1  UNL1        0.0188
      7 C         -31.9740    8.7790    6.9950 C.3     1  UNL1        0.1253
      8 C         -31.7250    9.9950    7.9090 C.3     1  UNL1        0.2126
      9 C         -30.6160   10.9090    7.3770 C.3     1  UNL1        0.2395
     10 C         -28.3370   10.6600    6.3910 C.ar    1  UNL1        0.1350
     11 C         -28.2410   11.8750    5.6610 C.ar    1  UNL1        0.0366
     12 C         -26.9980   12.3390    5.2100 C.ar    1  UNL1        0.0031
     13 C         -25.8410   11.5940    5.4490 C.ar    1  UNL1       -0.0001
     14 C         -25.9230   10.3900    6.1580 C.ar    1  UNL1       -0.0009
     15 C         -27.1640    9.8890    6.6340 C.ar    1  UNL1        0.0162
     16 C         -27.2280    8.5740    7.4030 C.3     1  UNL1        0.0554
     17 C         -25.9800    7.7330    7.4510 C.2     1  UNL1       -0.0213
     18 C         -25.6090    6.8530    6.5120 C.2     1  UNL1       -0.0046
@<TRIPOS>BOND
     1     4     1    1
     2     4     2    1
     3     6     4    1
     4     7     2    1
     5     8     3    1
     6     8     7    1
     7     9     8    1
     8     9     5    1
     9    10     5    1
    10    11    10   ar
    11    12    11   ar
    12    13    12   ar
    13    14    13   ar
    14    15    10   ar
    15    15    14   ar
    16    16    15    1
    17    17    16    1
    18    18    17    2
