@<TRIPOS>MOLECULE
6PS0_CAU_A1201
 22 24 0 0 0
SMALL
GASTEIGER

@<TRIPOS>ATOM
      1 O         -32.8480   10.9180    8.1550 O.3     1  UNL1       -0.2176
      2 C         -31.7010   10.1310    8.0570 C.3     1  UNL1        0.2126
      3 C         -31.9970    8.6290    7.9620 C.3     1  UNL1        0.1253
      4 N         -33.2510    8.3670    7.2690 N.3     1  UNL1       -0.2167
      5 C         -33.4140    6.9510    6.9790 C.3     1  UNL1        0.0730
      6 C         -34.6520    6.4290    7.7090 C.3     1  UNL1        0.0188
      7 C         -33.6260    6.7470    5.4790 C.3     1  UNL1        0.0188
      8 C         -30.8590   10.6020    6.8830 C.3     1  UNL1        0.2395
      9 O         -29.6490   11.0430    7.4290 O.3     1  UNL1       -0.4726
     10 C         -28.6090   11.2660    6.5110 C.ar    1  UNL1        0.1401
     11 C         -28.5110   12.4990    5.8640 C.ar    1  UNL1        0.0370
     12 C         -27.4510   12.7680    5.0020 C.ar    1  UNL1        0.0047
     13 C         -26.4690   11.8030    4.7900 C.ar    1  UNL1        0.0193
     14 C         -26.5430   10.5600    5.4560 C.ar    1  UNL1        0.0842
     15 C         -27.5910   10.2890    6.3190 C.ar    1  UNL1        0.0530
     16 N         -25.7070    9.4700    5.4280 N.ar    1  UNL1       -0.2453
     17 C         -26.2150    8.5090    6.2650 C.ar    1  UNL1        0.0814
     18 C         -27.3780    9.0090    6.8290 C.ar    1  UNL1        0.0220
     19 C         -25.7640    7.2050    6.5690 C.ar    1  UNL1        0.0191
     20 C         -26.4970    6.4230    7.4570 C.ar    1  UNL1        0.0015
     21 C         -27.6710    6.9200    8.0340 C.ar    1  UNL1        0.0001
     22 C         -28.1120    8.2100    7.7390 C.ar    1  UNL1        0.0016
@<TRIPOS>BOND
     1     2     1    1
     2     3     2    1
     3     4     3    1
     4     5     4    1
     5     5     6    1
     6     7     5    1
     7     8     2    1
     8     9     8    1
     9    10     9    1
    10    11    10   ar
    11    12    11   ar
    12    13    12   ar
    13    14    13   ar
    14    15    10   ar
    15    15    14   ar
    16    16    14   ar
    17    17    16   ar
    18    18    15   ar
    19    18    17   ar
    20    19    17   ar
    21    20    19   ar
    22    21    20   ar
    23    22    21   ar
    24    22    18   ar
