@<TRIPOS>MOLECULE
6PS1_TIM_A1201
 21 22 0 0 0
SMALL
GASTEIGER

@<TRIPOS>ATOM
      1 C         -27.4460    9.4320    7.9510 C.3     1  UNL1        0.1244
      2 C         -27.6670    7.9310    7.8330 C.3     1  UNL1        0.1636
      3 O         -26.4710    7.2850    7.3470 O.3     1  UNL1       -0.3501
      4 C         -26.0600    7.7660    6.0500 C.3     1  UNL1        0.1636
      5 C         -25.7960    9.2690    6.0680 C.3     1  UNL1        0.1244
      6 N         -26.9010    9.9980    6.7070 N.pl3   1  UNL1       -0.2838
      7 C         -27.3480   11.2010    6.1810 C.ar    1  UNL1        0.1954
      8 N         -26.4980   12.1680    5.7820 N.ar    1  UNL1       -0.1716
      9 S         -27.4510   13.4330    5.2370 S.2     1  UNL1        0.1206
     10 N         -28.9670   12.8020    5.4880 N.ar    1  UNL1       -0.1530
     11 C         -28.7420   11.5900    6.0140 C.ar    1  UNL1        0.2661
     12 O         -29.8480   10.8500    6.3210 O.3     1  UNL1       -0.4551
     13 C         -30.6260   11.4080    7.3940 C.3     1  UNL1        0.2413
     14 C         -31.7100   10.4510    7.8910 C.3     1  UNL1        0.2126
     15 O         -32.9030   11.2110    8.0810 O.3     1  UNL1       -0.2176
     16 C         -31.9710    9.2190    6.9970 C.3     1  UNL1        0.1253
     17 N         -33.1810    8.4780    7.4490 N.3     1  UNL1       -0.2180
     18 C         -33.3710    7.0210    7.1580 C.3     1  UNL1        0.0596
     19 C         -33.4090    6.7380    5.6750 C.3     1  UNL1        0.0174
     20 C         -32.2120    6.2210    7.7840 C.3     1  UNL1        0.0174
     21 C         -34.6880    6.4450    7.7000 C.3     1  UNL1        0.0174
@<TRIPOS>BOND
     1     2     1    1
     2     3     2    1
     3     4     3    1
     4     5     4    1
     5     6     1    1
     6     6     5    1
     7     7     6    1
     8     8     7   ar
     9     9     8   ar
    10    10     9   ar
    11    11    10   ar
    12    11     7   ar
    13    12    11    1
    14    13    12    1
    15    14    13    1
    16    14    15    1
    17    16    14    1
    18    17    16    1
    19    18    17    1
    20    18    19    1
    21    20    18    1
    22    21    18    1
