@<TRIPOS>MOLECULE
6PS1_TIM_A1201
 21 22 0 0 0
SMALL
GASTEIGER

@<TRIPOS>ATOM
      1 C         -27.7380    9.4580    8.1900 C.3     1  UNL1        0.1244
      2 C         -27.9850    7.9600    8.0850 C.3     1  UNL1        0.1636
      3 O         -26.7870    7.2850    7.6450 O.3     1  UNL1       -0.3501
      4 C         -26.3250    7.7410    6.3550 C.3     1  UNL1        0.1636
      5 C         -26.0330    9.2380    6.3630 C.3     1  UNL1        0.1244
      6 N         -27.1430    9.9970    6.9570 N.pl3   1  UNL1       -0.2838
      7 C         -27.5490   11.2020    6.4030 C.ar    1  UNL1        0.1954
      8 N         -26.6690   12.1470    6.0190 N.ar    1  UNL1       -0.1716
      9 S         -27.5780   13.4220    5.4280 S.2     1  UNL1        0.1206
     10 N         -29.1140   12.8240    5.6390 N.ar    1  UNL1       -0.1530
     11 C         -28.9300   11.6150    6.1870 C.ar    1  UNL1        0.2661
     12 O         -30.0590   10.9000    6.4670 O.3     1  UNL1       -0.4551
     13 C         -30.8600   11.4870    7.5070 C.3     1  UNL1        0.2413
     14 C         -31.9770   10.5580    7.9810 C.3     1  UNL1        0.2126
     15 O         -33.1610   11.3430    8.1240 O.3     1  UNL1       -0.2176
     16 C         -32.2340    9.3190    7.0950 C.3     1  UNL1        0.1253
     17 N         -33.4720    8.6080    7.5180 N.3     1  UNL1       -0.2180
     18 C         -33.6810    7.1510    7.2380 C.3     1  UNL1        0.0596
     19 C         -33.6780    6.8490    5.7580 C.3     1  UNL1        0.0174
     20 C         -32.5590    6.3370    7.9110 C.3     1  UNL1        0.0174
     21 C         -35.0260    6.6080    7.7450 C.3     1  UNL1        0.0174
@<TRIPOS>BOND
     1     2     1    1
     2     3     2    1
     3     4     3    1
     4     5     4    1
     5     6     1    1
     6     6     5    1
     7     7     6    1
     8     8     7   ar
     9     9     8   ar
    10    10     9   ar
    11    11    10   ar
    12    11     7   ar
    13    12    11    1
    14    13    12    1
    15    14    13    1
    16    14    15    1
    17    16    14    1
    18    17    16    1
    19    18    17    1
    20    18    19    1
    21    20    18    1
    22    21    18    1
