@<TRIPOS>MOLECULE
6PS6_TIM_A1201
 21 22 0 0 0
SMALL
GASTEIGER

@<TRIPOS>ATOM
      1 C         -27.6240    9.3550    7.9740 C.3     1  UNL1        0.1244
      2 C         -27.7550    7.8440    7.9070 C.3     1  UNL1        0.1636
      3 O         -26.4840    7.2640    7.5490 O.3     1  UNL1       -0.3501
      4 C         -26.0480    7.6810    6.2420 C.3     1  UNL1        0.1636
      5 C         -25.9310    9.1980    6.1340 C.3     1  UNL1        0.1244
      6 N         -27.0700    9.9070    6.7340 N.pl3   1  UNL1       -0.2838
      7 C         -27.5170   11.0940    6.1800 C.ar    1  UNL1        0.1954
      8 N         -26.6680   12.0160    5.6960 N.ar    1  UNL1       -0.1716
      9 S         -27.6000   13.2820    5.1330 S.2     1  UNL1        0.1206
     10 N         -29.1150   12.7120    5.4950 N.ar    1  UNL1       -0.1530
     11 C         -28.9020   11.5200    6.0700 C.ar    1  UNL1        0.2661
     12 O         -30.0090   10.8170    6.4560 O.3     1  UNL1       -0.4551
     13 C         -30.7610   11.4020    7.5370 C.3     1  UNL1        0.2413
     14 C         -31.8870   10.4710    7.9860 C.3     1  UNL1        0.2126
     15 O         -33.0590   11.2570    8.1840 O.3     1  UNL1       -0.2176
     16 C         -32.1560    9.2710    7.0480 C.3     1  UNL1        0.1253
     17 N         -33.2860    8.4290    7.5230 N.3     1  UNL1       -0.2180
     18 C         -33.3220    6.9630    7.2100 C.3     1  UNL1        0.0596
     19 C         -33.1990    6.5500    5.7360 C.3     1  UNL1        0.0174
     20 C         -32.2540    6.2110    7.9700 C.3     1  UNL1        0.0174
     21 C         -34.6750    6.4330    7.7070 C.3     1  UNL1        0.0174
@<TRIPOS>BOND
     1     2     1    1
     2     3     2    1
     3     4     3    1
     4     5     4    1
     5     6     1    1
     6     6     5    1
     7     7     6    1
     8     8     7   ar
     9     9     8   ar
    10    10     9   ar
    11    11    10   ar
    12    11     7   ar
    13    12    11    1
    14    13    12    1
    15    14    13    1
    16    14    15    1
    17    16    14    1
    18    17    16    1
    19    18    17    1
    20    18    19    1
    21    20    18    1
    22    21    18    1
