@<TRIPOS>MOLECULE
7DHI_68H_R401
 17 17 0 0 0
SMALL
GASTEIGER

@<TRIPOS>ATOM
      1 O         -25.7970    9.3440    5.7620 O.3     1  UNL1       -0.2151
      2 C         -26.6900    9.0030    6.7750 C.3     1  UNL1        0.2118
      3 C         -27.8540    9.9210    6.6770 C.ar    1  UNL1        0.0493
      4 C         -27.7120   11.1750    6.0780 C.ar    1  UNL1        0.1941
      5 O         -26.4960   11.5500    5.5880 O.3     1  UNL1       -0.2868
      6 C         -28.7730   12.0650    5.9630 C.ar    1  UNL1        0.0415
      7 C         -30.0050   11.6830    6.4610 C.ar    1  UNL1        0.0015
      8 C         -29.0910    9.5540    7.1670 C.ar    1  UNL1       -0.0004
      9 C         -30.1480   10.4390    7.0520 C.ar    1  UNL1        0.0091
     10 C         -31.4610   10.0130    7.5950 C.3     1  UNL1        0.1915
     11 O         -32.4260   10.9810    7.3920 O.3     1  UNL1       -0.2167
     12 C         -31.8250    8.7080    6.8920 C.3     1  UNL1        0.1259
     13 N         -33.2070    8.3830    7.2920 N.3     1  UNL1       -0.2177
     14 C         -33.5810    6.9700    7.0370 C.3     1  UNL1        0.0596
     15 C         -35.0350    6.6850    7.4150 C.3     1  UNL1        0.0174
     16 C         -33.4050    6.6350    5.5580 C.3     1  UNL1        0.0174
     17 C         -32.6590    6.0780    7.8750 C.3     1  UNL1        0.0174
@<TRIPOS>BOND
     1     2     1    1
     2     3     2    1
     3     4     3   ar
     4     5     4    1
     5     6     4   ar
     6     7     6   ar
     7     8     3   ar
     8     9     8   ar
     9     9     7   ar
    10    10     9    1
    11    10    11    1
    12    12    10    1
    13    13    12    1
    14    14    13    1
    15    14    15    1
    16    16    14    1
    17    17    14    1
