@<TRIPOS>MOLECULE
8GE1_G1I_R501
 15 16 0 0 0
SMALL
GASTEIGER

@<TRIPOS>ATOM
      1 C         -29.8610   11.5680    6.8430 C.ar    1  UNL1        0.0014
      2 C         -28.7190   12.1790    6.3610 C.ar    1  UNL1        0.0451
      3 C         -27.5940   11.4330    5.9710 C.ar    1  UNL1        0.2339
      4 C         -27.6830    9.9920    6.0980 C.ar    1  UNL1        0.2300
      5 C         -28.8820    9.3780    6.6030 C.ar    1  UNL1        0.0185
      6 C         -29.9790   10.1710    6.9830 C.ar    1  UNL1        0.0084
      7 C         -28.9570    7.8520    6.7320 C.3     1  UNL1        0.0310
      8 C         -30.3720    7.1940    6.8250 C.3     1  UNL1        0.0251
      9 C         -31.5690    8.1610    6.7310 C.3     1  UNL1        0.1077
     10 C         -31.2490    9.4790    7.5160 C.3     1  UNL1        0.1899
     11 C         -33.3710    6.5110    6.2660 C.3     1  UNL1        0.1075
     12 N         -32.8220    7.5230    7.1860 N.3     1  UNL1       -0.2150
     13 O         -26.6500    9.2440    5.7460 O.3     1  UNL1       -0.2835
     14 O         -26.4670   11.9710    5.4990 O.3     1  UNL1       -0.2832
     15 O         -32.3470   10.3190    7.3690 O.3     1  UNL1       -0.2168
@<TRIPOS>BOND
     1     2     1   ar
     2     3     2   ar
     3     4     3   ar
     4     5     4   ar
     5     6     5   ar
     6     6     1   ar
     7     7     5    1
     8     8     7    1
     9     9     8    1
    10    10     9    1
    11    10     6    1
    12    12    11    1
    13     9    12    1
    14    13     4    1
    15    14     3    1
    16    10    15    1
