@<TRIPOS>MOLECULE
8GE2_G1I_R501
 15 16 0 0 0
SMALL
GASTEIGER

@<TRIPOS>ATOM
      1 C         -29.8290   11.5350    6.7230 C.ar    1  UNL1        0.0014
      2 C         -28.6620   12.1190    6.2750 C.ar    1  UNL1        0.0451
      3 C         -27.5040   11.3620    6.0320 C.ar    1  UNL1        0.2339
      4 C         -27.5890    9.9350    6.2710 C.ar    1  UNL1        0.2300
      5 C         -28.8170    9.3470    6.7370 C.ar    1  UNL1        0.0185
      6 C         -29.9450   10.1520    6.9690 C.ar    1  UNL1        0.0084
      7 C         -28.8900    7.8360    6.9870 C.3     1  UNL1        0.0310
      8 C         -30.3010    7.1680    7.0380 C.3     1  UNL1        0.0251
      9 C         -31.4880    8.1060    6.7610 C.3     1  UNL1        0.1077
     10 C         -31.2440    9.4860    7.4640 C.3     1  UNL1        0.1899
     11 C         -33.2880    6.4750    6.2150 C.3     1  UNL1        0.1075
     12 N         -32.7730    7.4880    7.1540 N.3     1  UNL1       -0.2150
     13 O         -26.5260    9.1780    6.0570 O.3     1  UNL1       -0.2835
     14 O         -26.3520   11.8760    5.6000 O.3     1  UNL1       -0.2832
     15 O         -32.3350   10.2930    7.1690 O.3     1  UNL1       -0.2168
@<TRIPOS>BOND
     1     2     1   ar
     2     3     2   ar
     3     4     3   ar
     4     5     4   ar
     5     6     5   ar
     6     6     1   ar
     7     7     5    1
     8     8     7    1
     9     9     8    1
    10    10     9    1
    11    10     6    1
    12    12    11    1
    13     9    12    1
    14    13     4    1
    15    14     3    1
    16    10    15    1
