@<TRIPOS>MOLECULE
8GE3_G1I_R501
 15 16 0 0 0
SMALL
GASTEIGER

@<TRIPOS>ATOM
      1 C         -29.7400   11.4590    6.7220 C.ar    1  UNL1        0.0014
      2 C         -28.5740   12.0410    6.2650 C.ar    1  UNL1        0.0451
      3 C         -27.4130   11.2840    6.0330 C.ar    1  UNL1        0.2339
      4 C         -27.4940    9.8600    6.2960 C.ar    1  UNL1        0.2300
      5 C         -28.7210    9.2760    6.7710 C.ar    1  UNL1        0.0185
      6 C         -29.8520   10.0810    6.9890 C.ar    1  UNL1        0.0084
      7 C         -28.7920    7.7700    7.0470 C.3     1  UNL1        0.0310
      8 C         -30.2050    7.0990    7.0910 C.3     1  UNL1        0.0251
      9 C         -31.3960    8.0310    6.8120 C.3     1  UNL1        0.1077
     10 C         -31.1460    9.4180    7.4950 C.3     1  UNL1        0.1899
     11 C         -33.1820    6.3530    6.3510 C.3     1  UNL1        0.1075
     12 N         -32.6790    7.4230    7.2320 N.3     1  UNL1       -0.2150
     13 O         -26.4290    9.1000    6.0960 O.3     1  UNL1       -0.2835
     14 O         -26.2630   11.7970    5.5930 O.3     1  UNL1       -0.2832
     15 O         -32.2400   10.2250    7.2100 O.3     1  UNL1       -0.2168
@<TRIPOS>BOND
     1     2     1   ar
     2     3     2   ar
     3     4     3   ar
     4     5     4   ar
     5     6     5   ar
     6     6     1   ar
     7     7     5    1
     8     8     7    1
     9     9     8    1
    10    10     9    1
    11    10     6    1
    12    12    11    1
    13     9    12    1
    14    13     4    1
    15    14     3    1
    16    10    15    1
