@<TRIPOS>MOLECULE
8GE4_G1I_R501
 15 16 0 0 0
SMALL
GASTEIGER

@<TRIPOS>ATOM
      1 C         -29.8800   11.5130    6.8970 C.ar    1  UNL1        0.0014
      2 C         -28.7310   12.1110    6.4210 C.ar    1  UNL1        0.0451
      3 C         -27.5930   11.3630    6.0810 C.ar    1  UNL1        0.2339
      4 C         -27.6790    9.9260    6.2520 C.ar    1  UNL1        0.2300
      5 C         -28.8880    9.3270    6.7470 C.ar    1  UNL1        0.0185
      6 C         -29.9960   10.1230    7.0770 C.ar    1  UNL1        0.0084
      7 C         -28.9690    7.8110    6.9260 C.3     1  UNL1        0.0310
      8 C         -30.3860    7.1510    6.9030 C.3     1  UNL1        0.0251
      9 C         -31.5770    8.1200    6.7990 C.3     1  UNL1        0.1077
     10 C         -31.2680    9.4280    7.6010 C.3     1  UNL1        0.1899
     11 C         -33.2690    6.3330    6.4230 C.3     1  UNL1        0.1075
     12 N         -32.8370    7.4820    7.2370 N.3     1  UNL1       -0.2150
     13 O         -26.6370    9.1710    5.9470 O.3     1  UNL1       -0.2835
     14 O         -26.4620   11.8950    5.6180 O.3     1  UNL1       -0.2832
     15 O         -32.3700   10.2640    7.4690 O.3     1  UNL1       -0.2168
@<TRIPOS>BOND
     1     2     1   ar
     2     3     2   ar
     3     4     3   ar
     4     5     4   ar
     5     6     5   ar
     6     6     1   ar
     7     7     5    1
     8     8     7    1
     9     9     8    1
    10    10     9    1
    11    10     6    1
    12    12    11    1
    13     9    12    1
    14    13     4    1
    15    14     3    1
    16    10    15    1
