@<TRIPOS>MOLECULE
8GE5_G1I_R501
 15 16 0 0 0
SMALL
GASTEIGER

@<TRIPOS>ATOM
      1 C         -29.9850   11.4550    6.8780 C.ar    1  UNL1        0.0014
      2 C         -28.8580   12.0780    6.3840 C.ar    1  UNL1        0.0451
      3 C         -27.6930   11.3640    6.0750 C.ar    1  UNL1        0.2339
      4 C         -27.7230    9.9330    6.2990 C.ar    1  UNL1        0.2300
      5 C         -28.9090    9.3040    6.8130 C.ar    1  UNL1        0.0185
      6 C         -30.0480   10.0680    7.1090 C.ar    1  UNL1        0.0084
      7 C         -28.9240    7.7940    7.0450 C.3     1  UNL1        0.0310
      8 C         -30.3110    7.0770    7.1290 C.3     1  UNL1        0.0251
      9 C         -31.5420    7.9760    6.9500 C.3     1  UNL1        0.1077
     10 C         -31.2990    9.3520    7.6570 C.3     1  UNL1        0.1899
     11 C         -33.3040    6.2430    6.5610 C.3     1  UNL1        0.1075
     12 N         -32.7810    7.3150    7.4270 N.3     1  UNL1       -0.2150
     13 O         -26.6500    9.2100    6.0250 O.3     1  UNL1       -0.2835
     14 O         -26.5830   11.9220    5.5970 O.3     1  UNL1       -0.2832
     15 O         -32.4310   10.1290    7.4460 O.3     1  UNL1       -0.2168
@<TRIPOS>BOND
     1     2     1   ar
     2     3     2   ar
     3     4     3   ar
     4     5     4   ar
     5     6     5   ar
     6     6     1   ar
     7     7     5    1
     8     8     7    1
     9     9     8    1
    10    10     9    1
    11    10     6    1
    12    12    11    1
    13     9    12    1
    14    13     4    1
    15    14     3    1
    16    10    15    1
