@<TRIPOS>MOLECULE
8GE7_G1I_R501
 15 16 0 0 0
SMALL
GASTEIGER

@<TRIPOS>ATOM
      1 C         -29.7730   11.7810    6.8880 C.ar    1  UNL1        0.0014
      2 C         -28.5850   12.3160    6.4330 C.ar    1  UNL1        0.0451
      3 C         -27.5030   11.5100    6.0600 C.ar    1  UNL1        0.2339
      4 C         -27.6860   10.0780    6.1740 C.ar    1  UNL1        0.2300
      5 C         -28.9330    9.5450    6.6500 C.ar    1  UNL1        0.0185
      6 C         -29.9840   10.3980    7.0140 C.ar    1  UNL1        0.0084
      7 C         -29.1140    8.0380    6.7670 C.3     1  UNL1        0.0310
      8 C         -30.5710    7.4750    6.7600 C.3     1  UNL1        0.0251
      9 C         -31.6900    8.5180    6.6600 C.3     1  UNL1        0.1077
     10 C         -31.3040    9.7740    7.5140 C.3     1  UNL1        0.1899
     11 C         -33.2700    6.5780    6.5820 C.3     1  UNL1        0.1075
     12 N         -33.0100    7.9570    7.0400 N.3     1  UNL1       -0.2150
     13 O         -26.6980    9.2660    5.8370 O.3     1  UNL1       -0.2835
     14 O         -26.3390   11.9840    5.6140 O.3     1  UNL1       -0.2832
     15 O         -32.3460   10.6850    7.4020 O.3     1  UNL1       -0.2168
@<TRIPOS>BOND
     1     2     1   ar
     2     3     2   ar
     3     4     3   ar
     4     5     4   ar
     5     6     5   ar
     6     6     1   ar
     7     7     5    1
     8     8     7    1
     9     9     8    1
    10    10     9    1
    11    10     6    1
    12    12    11    1
    13     9    12    1
    14    13     4    1
    15    14     3    1
    16    10    15    1
