@<TRIPOS>MOLECULE
8GE9_G1I_R501
 15 16 0 0 0
SMALL
GASTEIGER

@<TRIPOS>ATOM
      1 C         -30.0400   11.3020    7.2580 C.ar    1  UNL1        0.0014
      2 C         -28.9290   12.0020    6.8280 C.ar    1  UNL1        0.0451
      3 C         -27.8100   11.3520    6.2790 C.ar    1  UNL1        0.2339
      4 C         -27.8760    9.9060    6.1850 C.ar    1  UNL1        0.2300
      5 C         -29.0470    9.2020    6.6420 C.ar    1  UNL1        0.0185
      6 C         -30.1390    9.8970    7.1800 C.ar    1  UNL1        0.0084
      7 C         -29.1190    7.6890    6.5450 C.3     1  UNL1        0.0310
      8 C         -30.5170    7.0870    6.2100 C.3     1  UNL1        0.0251
      9 C         -31.7610    7.8160    6.7940 C.3     1  UNL1        0.1077
     10 C         -31.3860    9.0980    7.6640 C.3     1  UNL1        0.1899
     11 C         -33.9140    6.5390    6.9010 C.3     1  UNL1        0.1075
     12 N         -32.6300    6.8720    7.5480 N.3     1  UNL1       -0.2150
     13 O         -26.8530    9.2380    5.6780 O.3     1  UNL1       -0.2835
     14 O         -26.7150   11.9810    5.8490 O.3     1  UNL1       -0.2832
     15 O         -32.5080    9.9270    7.6670 O.3     1  UNL1       -0.2168
@<TRIPOS>BOND
     1     2     1   ar
     2     3     2   ar
     3     4     3   ar
     4     5     4   ar
     5     6     5   ar
     6     6     1   ar
     7     7     5    1
     8     8     7    1
     9     9     8    1
    10    10     9    1
    11    10     6    1
    12    12    11    1
    13     9    12    1
    14    13     4    1
    15    14     3    1
    16    10    15    1
