@<TRIPOS>MOLECULE
8GEA_G1I_R501
 15 16 0 0 0
SMALL
GASTEIGER

@<TRIPOS>ATOM
      1 C         -30.0390   11.3410    7.2370 C.ar    1  UNL1        0.0014
      2 C         -28.8860   11.9740    6.8150 C.ar    1  UNL1        0.0451
      3 C         -27.7760   11.2550    6.3550 C.ar    1  UNL1        0.2339
      4 C         -27.8930    9.8120    6.3430 C.ar    1  UNL1        0.2300
      5 C         -29.1020    9.1740    6.7870 C.ar    1  UNL1        0.0185
      6 C         -30.1880    9.9420    7.2400 C.ar    1  UNL1        0.0084
      7 C         -29.1920    7.6500    6.7620 C.3     1  UNL1        0.0310
      8 C         -30.5940    6.9830    6.9310 C.3     1  UNL1        0.0251
      9 C         -31.7970    7.9280    6.8930 C.3     1  UNL1        0.1077
     10 C         -31.4810    9.2280    7.7110 C.3     1  UNL1        0.1899
     11 C         -33.7930    6.5180    6.3540 C.3     1  UNL1        0.1075
     12 N         -33.0300    7.2580    7.3720 N.3     1  UNL1       -0.2150
     13 O         -26.8740    9.0840    5.9210 O.3     1  UNL1       -0.2835
     14 O         -26.6400   11.8150    5.9370 O.3     1  UNL1       -0.2832
     15 O         -32.5730   10.0750    7.5570 O.3     1  UNL1       -0.2168
@<TRIPOS>BOND
     1     2     1   ar
     2     3     2   ar
     3     4     3   ar
     4     5     4   ar
     5     6     5   ar
     6     6     1   ar
     7     7     5    1
     8     8     7    1
     9     9     8    1
    10    10     9    1
    11    10     6    1
    12    12    11    1
    13     9    12    1
    14    13     4    1
    15    14     3    1
    16    10    15    1
