@<TRIPOS>MOLECULE
8GFV_G1I_R501
 15 16 0 0 0
SMALL
GASTEIGER

@<TRIPOS>ATOM
      1 C         -29.5360   11.5780    6.7740 C.ar    1  UNL1        0.0014
      2 C         -28.3360   12.0820    6.3200 C.ar    1  UNL1        0.0451
      3 C         -27.2390   11.2470    6.0570 C.ar    1  UNL1        0.2339
      4 C         -27.4200    9.8310    6.2830 C.ar    1  UNL1        0.2300
      5 C         -28.6800    9.3290    6.7540 C.ar    1  UNL1        0.0185
      6 C         -29.7450   10.2070    7.0040 C.ar    1  UNL1        0.0084
      7 C         -28.8550    7.8300    6.9890 C.3     1  UNL1        0.0310
      8 C         -30.3060    7.2610    7.0640 C.3     1  UNL1        0.0251
      9 C         -31.4400    8.2690    6.8350 C.3     1  UNL1        0.1077
     10 C         -31.0790    9.6390    7.5060 C.3     1  UNL1        0.1899
     11 C         -33.2010    6.5100    6.6490 C.3     1  UNL1        0.1075
     12 N         -32.7340    7.7360    7.3150 N.3     1  UNL1       -0.2150
     13 O         -26.4180    9.0050    6.0500 O.3     1  UNL1       -0.2835
     14 O         -26.0640   11.6790    5.6200 O.3     1  UNL1       -0.2832
     15 O         -32.1010   10.5260    7.1990 O.3     1  UNL1       -0.2168
@<TRIPOS>BOND
     1     2     1   ar
     2     3     2   ar
     3     4     3   ar
     4     5     4   ar
     5     6     5   ar
     6     6     1   ar
     7     7     5    1
     8     8     7    1
     9     9     8    1
    10    10     9    1
    11    10     6    1
    12    12    11    1
    13     9    12    1
    14    13     4    1
    15    14     3    1
    16    10    15    1
