@<TRIPOS>MOLECULE
8GFW_G1I_R501
 15 16 0 0 0
SMALL
GASTEIGER

@<TRIPOS>ATOM
      1 C         -29.5400   11.7580    6.7100 C.ar    1  UNL1        0.0014
      2 C         -28.3480   12.2740    6.2530 C.ar    1  UNL1        0.0451
      3 C         -27.2270   11.4580    6.0400 C.ar    1  UNL1        0.2339
      4 C         -27.3760   10.0460    6.3230 C.ar    1  UNL1        0.2300
      5 C         -28.6270    9.5280    6.7960 C.ar    1  UNL1        0.0185
      6 C         -29.7210   10.3930    6.9950 C.ar    1  UNL1        0.0084
      7 C         -28.7570    8.0300    7.0890 C.3     1  UNL1        0.0310
      8 C         -30.1850    7.4570    7.3360 C.3     1  UNL1        0.0251
      9 C         -31.3390    8.3850    6.9420 C.3     1  UNL1        0.1077
     10 C         -31.0560    9.8200    7.5010 C.3     1  UNL1        0.1899
     11 C         -32.9350    6.4790    6.9790 C.3     1  UNL1        0.1075
     12 N         -32.6430    7.8560    7.3930 N.3     1  UNL1       -0.2150
     13 O         -26.3500    9.2380    6.1390 O.3     1  UNL1       -0.2835
     14 O         -26.0560   11.9060    5.6030 O.3     1  UNL1       -0.2832
     15 O         -32.1000   10.6360    7.0850 O.3     1  UNL1       -0.2168
@<TRIPOS>BOND
     1     2     1   ar
     2     3     2   ar
     3     4     3   ar
     4     5     4   ar
     5     6     5   ar
     6     6     1   ar
     7     7     5    1
     8     8     7    1
     9     9     8    1
    10    10     9    1
    11    10     6    1
    12    12    11    1
    13     9    12    1
    14    13     4    1
    15    14     3    1
    16    10    15    1
