@<TRIPOS>MOLECULE
8GFX_G1I_R501
 15 16 0 0 0
SMALL
GASTEIGER

@<TRIPOS>ATOM
      1 C         -29.5030   11.7250    6.6210 C.ar    1  UNL1        0.0014
      2 C         -28.3130   12.2260    6.1410 C.ar    1  UNL1        0.0451
      3 C         -27.1960   11.4020    5.9490 C.ar    1  UNL1        0.2339
      4 C         -27.3440   10.0000    6.2770 C.ar    1  UNL1        0.2300
      5 C         -28.5930    9.4990    6.7740 C.ar    1  UNL1        0.0185
      6 C         -29.6840   10.3700    6.9520 C.ar    1  UNL1        0.0084
      7 C         -28.7280    8.0120    7.1150 C.3     1  UNL1        0.0310
      8 C         -30.1640    7.4420    7.3180 C.3     1  UNL1        0.0251
      9 C         -31.3080    8.3820    6.9220 C.3     1  UNL1        0.1077
     10 C         -31.0140    9.8110    7.4820 C.3     1  UNL1        0.1899
     11 C         -32.9150    6.4830    6.9590 C.3     1  UNL1        0.1075
     12 N         -32.6210    7.8640    7.3630 N.3     1  UNL1       -0.2150
     13 O         -26.3190    9.1860    6.1130 O.3     1  UNL1       -0.2835
     14 O         -26.0250   11.8320    5.4910 O.3     1  UNL1       -0.2832
     15 O         -32.0600   10.6340    7.0850 O.3     1  UNL1       -0.2168
@<TRIPOS>BOND
     1     2     1   ar
     2     3     2   ar
     3     4     3   ar
     4     5     4   ar
     5     6     5   ar
     6     6     1   ar
     7     7     5    1
     8     8     7    1
     9     9     8    1
    10    10     9    1
    11    10     6    1
    12    12    11    1
    13     9    12    1
    14    13     4    1
    15    14     3    1
    16    10    15    1
