@<TRIPOS>MOLECULE
8GFZ_G1I_R501
 15 16 0 0 0
SMALL
GASTEIGER

@<TRIPOS>ATOM
      1 C         -29.4740   11.7510    6.6490 C.ar    1  UNL1        0.0014
      2 C         -28.3210   12.3240    6.1550 C.ar    1  UNL1        0.0451
      3 C         -27.1710   11.5600    5.9040 C.ar    1  UNL1        0.2339
      4 C         -27.2440   10.1410    6.1870 C.ar    1  UNL1        0.2300
      5 C         -28.4590    9.5620    6.7020 C.ar    1  UNL1        0.0185
      6 C         -29.5850   10.3760    6.9380 C.ar    1  UNL1        0.0084
      7 C         -28.5150    8.0550    6.9950 C.3     1  UNL1        0.0310
      8 C         -29.9170    7.4030    7.2150 C.3     1  UNL1        0.0251
      9 C         -31.1310    8.3020    6.9060 C.3     1  UNL1        0.1077
     10 C         -30.8810    9.7390    7.4870 C.3     1  UNL1        0.1899
     11 C         -32.6260    6.3140    6.9880 C.3     1  UNL1        0.1075
     12 N         -32.3930    7.7060    7.3990 N.3     1  UNL1       -0.2150
     13 O         -26.1820    9.3850    5.9660 O.3     1  UNL1       -0.2835
     14 O         -26.0330   12.0630    5.4310 O.3     1  UNL1       -0.2832
     15 O         -31.9800   10.5240    7.1490 O.3     1  UNL1       -0.2168
@<TRIPOS>BOND
     1     2     1   ar
     2     3     2   ar
     3     4     3   ar
     4     5     4   ar
     5     6     5   ar
     6     6     1   ar
     7     7     5    1
     8     8     7    1
     9     9     8    1
    10    10     9    1
    11    10     6    1
    12    12    11    1
    13     9    12    1
    14    13     4    1
    15    14     3    1
    16    10    15    1
