@<TRIPOS>MOLECULE
8GG1_G1I_R501
 15 16 0 0 0
SMALL
GASTEIGER

@<TRIPOS>ATOM
      1 C         -29.4290   11.7000    6.8080 C.ar    1  UNL1        0.0014
      2 C         -28.2550   12.2520    6.3430 C.ar    1  UNL1        0.0451
      3 C         -27.1320   11.4610    6.0600 C.ar    1  UNL1        0.2339
      4 C         -27.2550   10.0350    6.2760 C.ar    1  UNL1        0.2300
      5 C         -28.4930    9.4760    6.7620 C.ar    1  UNL1        0.0185
      6 C         -29.5910   10.3210    7.0330 C.ar    1  UNL1        0.0084
      7 C         -28.6070    7.9580    6.9880 C.3     1  UNL1        0.0310
      8 C         -30.0280    7.3630    7.2410 C.3     1  UNL1        0.0251
      9 C         -31.2020    8.3020    6.9280 C.3     1  UNL1        0.1077
     10 C         -30.9130    9.7110    7.5500 C.3     1  UNL1        0.1899
     11 C         -33.0620    6.7030    6.5150 C.3     1  UNL1        0.1075
     12 N         -32.4870    7.7370    7.3870 N.3     1  UNL1       -0.2150
     13 O         -26.2160    9.2550    6.0210 O.3     1  UNL1       -0.2835
     14 O         -25.9780   11.9430    5.6120 O.3     1  UNL1       -0.2832
     15 O         -31.9790   10.5380    7.2140 O.3     1  UNL1       -0.2168
@<TRIPOS>BOND
     1     2     1   ar
     2     3     2   ar
     3     4     3   ar
     4     5     4   ar
     5     6     5   ar
     6     6     1   ar
     7     7     5    1
     8     8     7    1
     9     9     8    1
    10    10     9    1
    11    10     6    1
    12    12    11    1
    13     9    12    1
    14    13     4    1
    15    14     3    1
    16    10    15    1
