@<TRIPOS>MOLECULE
8GG3_G1I_R501
 15 16 0 0 0
SMALL
GASTEIGER

@<TRIPOS>ATOM
      1 C         -29.5800   11.6660    6.7050 C.ar    1  UNL1        0.0014
      2 C         -28.3910   12.1380    6.1880 C.ar    1  UNL1        0.0451
      3 C         -27.3070   11.2830    5.9390 C.ar    1  UNL1        0.2339
      4 C         -27.4880    9.8780    6.2490 C.ar    1  UNL1        0.2300
      5 C         -28.7400    9.4080    6.7870 C.ar    1  UNL1        0.0185
      6 C         -29.7940   10.3110    7.0190 C.ar    1  UNL1        0.0084
      7 C         -28.9200    7.9160    7.1130 C.3     1  UNL1        0.0310
      8 C         -30.3820    7.3720    7.2480 C.3     1  UNL1        0.0251
      9 C         -31.5090    8.3880    6.9780 C.3     1  UNL1        0.1077
     10 C         -31.1210    9.7770    7.5930 C.3     1  UNL1        0.1899
     11 C         -33.3840    6.7670    6.7310 C.3     1  UNL1        0.1075
     12 N         -32.8140    7.9010    7.4740 N.3     1  UNL1       -0.2150
     13 O         -26.4940    9.0350    6.0330 O.3     1  UNL1       -0.2835
     14 O         -26.1410   11.6860    5.4430 O.3     1  UNL1       -0.2832
     15 O         -32.1530   10.6640    7.3140 O.3     1  UNL1       -0.2168
@<TRIPOS>BOND
     1     2     1   ar
     2     3     2   ar
     3     4     3   ar
     4     5     4   ar
     5     6     5   ar
     6     6     1   ar
     7     7     5    1
     8     8     7    1
     9     9     8    1
    10    10     9    1
    11    10     6    1
    12    12    11    1
    13     9    12    1
    14    13     4    1
    15    14     3    1
    16    10    15    1
