@<TRIPOS>MOLECULE
8GG3_G1I_R501
 15 16 0 0 0
SMALL
GASTEIGER

@<TRIPOS>ATOM
      1 C         -29.4950   11.6230    6.6820 C.ar    1  UNL1        0.0014
      2 C         -28.3130   12.1020    6.1540 C.ar    1  UNL1        0.0451
      3 C         -27.2180   11.2580    5.9170 C.ar    1  UNL1        0.2339
      4 C         -27.3800    9.8560    6.2520 C.ar    1  UNL1        0.2300
      5 C         -28.6240    9.3790    6.8010 C.ar    1  UNL1        0.0185
      6 C         -29.6890   10.2710    7.0210 C.ar    1  UNL1        0.0084
      7 C         -28.7830    7.8900    7.1530 C.3     1  UNL1        0.0310
      8 C         -30.2370    7.3290    7.3020 C.3     1  UNL1        0.0251
      9 C         -31.3790    8.3250    7.0180 C.3     1  UNL1        0.1077
     10 C         -31.0070    9.7300    7.6070 C.3     1  UNL1        0.1899
     11 C         -33.2320    6.6740    6.8040 C.3     1  UNL1        0.1075
     12 N         -32.6750    7.8290    7.5260 N.3     1  UNL1       -0.2150
     13 O         -26.3750    9.0230    6.0470 O.3     1  UNL1       -0.2835
     14 O         -26.0600   11.6680    5.4110 O.3     1  UNL1       -0.2832
     15 O         -32.0520   10.5970    7.3170 O.3     1  UNL1       -0.2168
@<TRIPOS>BOND
     1     2     1   ar
     2     3     2   ar
     3     4     3   ar
     4     5     4   ar
     5     6     5   ar
     6     6     1   ar
     7     7     5    1
     8     8     7    1
     9     9     8    1
    10    10     9    1
    11    10     6    1
    12    12    11    1
    13     9    12    1
    14    13     4    1
    15    14     3    1
    16    10    15    1
