@<TRIPOS>MOLECULE
8GG4_G1I_R501
 15 16 0 0 0
SMALL
GASTEIGER

@<TRIPOS>ATOM
      1 C         -29.6380   11.6250    6.6740 C.ar    1  UNL1        0.0014
      2 C         -28.4410   12.0790    6.1580 C.ar    1  UNL1        0.0451
      3 C         -27.3700   11.2070    5.9090 C.ar    1  UNL1        0.2339
      4 C         -27.5750    9.8040    6.2150 C.ar    1  UNL1        0.2300
      5 C         -28.8320    9.3520    6.7510 C.ar    1  UNL1        0.0185
      6 C         -29.8710   10.2710    6.9850 C.ar    1  UNL1        0.0084
      7 C         -29.0340    7.8630    7.0720 C.3     1  UNL1        0.0310
      8 C         -30.5030    7.3400    7.2080 C.3     1  UNL1        0.0251
      9 C         -31.6090    8.3750    6.9210 C.3     1  UNL1        0.1077
     10 C         -31.2040    9.7540    7.5570 C.3     1  UNL1        0.1899
     11 C         -33.3000    6.5450    6.9570 C.3     1  UNL1        0.1075
     12 N         -32.9340    7.9070    7.3790 N.3     1  UNL1       -0.2150
     13 O         -26.5960    8.9430    5.9990 O.3     1  UNL1       -0.2835
     14 O         -26.1970   11.5920    5.4130 O.3     1  UNL1       -0.2832
     15 O         -32.2230   10.6590    7.2890 O.3     1  UNL1       -0.2168
@<TRIPOS>BOND
     1     2     1   ar
     2     3     2   ar
     3     4     3   ar
     4     5     4   ar
     5     6     5   ar
     6     6     1   ar
     7     7     5    1
     8     8     7    1
     9     9     8    1
    10    10     9    1
    11    10     6    1
    12    12    11    1
    13     9    12    1
    14    13     4    1
    15    14     3    1
    16    10    15    1
