@<TRIPOS>MOLECULE
8GG5_G1I_R501
 15 16 0 0 0
SMALL
GASTEIGER

@<TRIPOS>ATOM
      1 C         -29.6770   11.7120    6.7110 C.ar    1  UNL1        0.0014
      2 C         -28.4860   12.2040    6.2200 C.ar    1  UNL1        0.0451
      3 C         -27.4000   11.3620    5.9560 C.ar    1  UNL1        0.2339
      4 C         -27.5800    9.9490    6.2160 C.ar    1  UNL1        0.2300
      5 C         -28.8280    9.4550    6.7230 C.ar    1  UNL1        0.0185
      6 C         -29.8870   10.3460    6.9760 C.ar    1  UNL1        0.0084
      7 C         -28.9990    7.9480    6.9930 C.3     1  UNL1        0.0310
      8 C         -30.4510    7.4120    7.2160 C.3     1  UNL1        0.0251
      9 C         -31.5670    8.4120    6.8720 C.3     1  UNL1        0.1077
     10 C         -31.2130    9.7910    7.5170 C.3     1  UNL1        0.1899
     11 C         -33.0760    6.4800    7.4080 C.3     1  UNL1        0.1075
     12 N         -32.9110    7.9360    7.2750 N.3     1  UNL1       -0.2150
     13 O         -26.5900    9.1110    5.9840 O.3     1  UNL1       -0.2835
     14 O         -26.2340   11.7870    5.4850 O.3     1  UNL1       -0.2832
     15 O         -32.2430   10.6670    7.2270 O.3     1  UNL1       -0.2168
@<TRIPOS>BOND
     1     2     1   ar
     2     3     2   ar
     3     4     3   ar
     4     5     4   ar
     5     6     5   ar
     6     6     1   ar
     7     7     5    1
     8     8     7    1
     9     9     8    1
    10    10     9    1
    11    10     6    1
    12    12    11    1
    13     9    12    1
    14    13     4    1
    15    14     3    1
    16    10    15    1
