@<TRIPOS>MOLECULE
8GG9_G1I_R501
 15 16 0 0 0
SMALL
GASTEIGER

@<TRIPOS>ATOM
      1 C         -29.4970   11.6360    6.6840 C.ar    1  UNL1        0.0014
      2 C         -28.2530   12.0760    6.2850 C.ar    1  UNL1        0.0451
      3 C         -27.1870   11.1840    6.0940 C.ar    1  UNL1        0.2339
      4 C         -27.4560    9.7820    6.3360 C.ar    1  UNL1        0.2300
      5 C         -28.7580    9.3460    6.7500 C.ar    1  UNL1        0.0185
      6 C         -29.7910   10.2820    6.9280 C.ar    1  UNL1        0.0084
      7 C         -29.0010    7.8540    6.9970 C.3     1  UNL1        0.0310
      8 C         -30.4750    7.3810    7.1780 C.3     1  UNL1        0.0251
      9 C         -31.5420    8.4010    6.7550 C.3     1  UNL1        0.1077
     10 C         -31.1850    9.7940    7.3680 C.3     1  UNL1        0.1899
     11 C         -33.1730    6.5190    7.0020 C.3     1  UNL1        0.1075
     12 N         -32.9080    7.9630    7.1220 N.3     1  UNL1       -0.2150
     13 O         -26.4890    8.8980    6.1750 O.3     1  UNL1       -0.2835
     14 O         -25.9630   11.5490    5.7110 O.3     1  UNL1       -0.2832
     15 O         -32.1590   10.6890    6.9320 O.3     1  UNL1       -0.2168
@<TRIPOS>BOND
     1     2     1   ar
     2     3     2   ar
     3     4     3   ar
     4     5     4   ar
     5     6     5   ar
     6     6     1   ar
     7     7     5    1
     8     8     7    1
     9     9     8    1
    10    10     9    1
    11    10     6    1
    12    12    11    1
    13     9    12    1
    14    13     4    1
    15    14     3    1
    16    10    15    1
