@<TRIPOS>MOLECULE
8GGA_G1I_R501
 15 16 0 0 0
SMALL
GASTEIGER

@<TRIPOS>ATOM
      1 C         -29.7230   11.4790    6.6890 C.ar    1  UNL1        0.0014
      2 C         -28.4650   11.9120    6.3160 C.ar    1  UNL1        0.0451
      3 C         -27.3830   11.0220    6.2040 C.ar    1  UNL1        0.2339
      4 C         -27.6480    9.6250    6.4970 C.ar    1  UNL1        0.2300
      5 C         -28.9660    9.1940    6.8840 C.ar    1  UNL1        0.0185
      6 C         -30.0180   10.1300    6.9840 C.ar    1  UNL1        0.0084
      7 C         -29.2110    7.7060    7.1900 C.3     1  UNL1        0.0310
      8 C         -30.6880    7.2170    7.3220 C.3     1  UNL1        0.0251
      9 C         -31.7620    8.2160    6.8490 C.3     1  UNL1        0.1077
     10 C         -31.4290    9.6500    7.3970 C.3     1  UNL1        0.1899
     11 C         -33.4200    6.3520    6.9600 C.3     1  UNL1        0.1075
     12 N         -33.1270    7.7740    7.2210 N.3     1  UNL1       -0.2150
     13 O         -26.6650    8.7460    6.4080 O.3     1  UNL1       -0.2835
     14 O         -26.1490   11.3860    5.8480 O.3     1  UNL1       -0.2832
     15 O         -32.3910   10.5140    6.8800 O.3     1  UNL1       -0.2168
@<TRIPOS>BOND
     1     2     1   ar
     2     3     2   ar
     3     4     3   ar
     4     5     4   ar
     5     6     5   ar
     6     6     1   ar
     7     7     5    1
     8     8     7    1
     9     9     8    1
    10    10     9    1
    11    10     6    1
    12    12    11    1
    13     9    12    1
    14    13     4    1
    15    14     3    1
    16    10    15    1
