@<TRIPOS>MOLECULE
8GGB_G1I_R501
 15 16 0 0 0
SMALL
GASTEIGER

@<TRIPOS>ATOM
      1 C         -29.7130   11.4620    6.9270 C.ar    1  UNL1        0.0014
      2 C         -28.5330   12.0330    6.4890 C.ar    1  UNL1        0.0451
      3 C         -27.4580   11.2490    6.0310 C.ar    1  UNL1        0.2339
      4 C         -27.6460    9.8100    6.0380 C.ar    1  UNL1        0.2300
      5 C         -28.8850    9.2410    6.4990 C.ar    1  UNL1        0.0185
      6 C         -29.9240   10.0690    6.9490 C.ar    1  UNL1        0.0084
      7 C         -29.0770    7.7210    6.5040 C.3     1  UNL1        0.0310
      8 C         -30.5390    7.1790    6.3450 C.3     1  UNL1        0.0251
      9 C         -31.6870    8.2090    6.5130 C.3     1  UNL1        0.1077
     10 C         -31.2360    9.4130    7.4300 C.3     1  UNL1        0.1899
     11 C         -32.7610    6.5780    8.0850 C.3     1  UNL1        0.1075
     12 N         -32.9370    7.5650    7.0010 N.3     1  UNL1       -0.2150
     13 O         -26.6690    9.0240    5.6190 O.3     1  UNL1       -0.2835
     14 O         -26.2970   11.7470    5.5970 O.3     1  UNL1       -0.2832
     15 O         -32.2620   10.3550    7.4210 O.3     1  UNL1       -0.2168
@<TRIPOS>BOND
     1     2     1   ar
     2     3     2   ar
     3     4     3   ar
     4     5     4   ar
     5     6     5   ar
     6     6     1   ar
     7     7     5    1
     8     8     7    1
     9     9     8    1
    10    10     9    1
    11    10     6    1
    12    12    11    1
    13     9    12    1
    14    13     4    1
    15    14     3    1
    16    10    15    1
