@<TRIPOS>MOLECULE
8GGC_G1I_R501
 15 16 0 0 0
SMALL
GASTEIGER

@<TRIPOS>ATOM
      1 C         -30.1320   11.7230    6.2690 C.ar    1  UNL1        0.0014
      2 C         -28.8850   12.0740    5.7810 C.ar    1  UNL1        0.0451
      3 C         -27.8210   11.1540    5.7430 C.ar    1  UNL1        0.2339
      4 C         -28.0890    9.8160    6.2380 C.ar    1  UNL1        0.2300
      5 C         -29.3980    9.4760    6.7400 C.ar    1  UNL1        0.0185
      6 C         -30.4270   10.4320    6.7590 C.ar    1  UNL1        0.0084
      7 C         -29.6780    8.0670    7.2630 C.3     1  UNL1        0.0310
      8 C         -31.1370    7.5200    7.1010 C.3     1  UNL1        0.0251
      9 C         -32.2650    8.5650    6.8630 C.3     1  UNL1        0.1077
     10 C         -31.8180   10.0200    7.3070 C.3     1  UNL1        0.1899
     11 C         -33.8290    6.7000    7.4890 C.3     1  UNL1        0.1075
     12 N         -33.5460    8.1500    7.5050 N.3     1  UNL1       -0.2150
     13 O         -27.1230    8.9110    6.2260 O.3     1  UNL1       -0.2835
     14 O         -26.6010   11.4420    5.2840 O.3     1  UNL1       -0.2832
     15 O         -32.7910   10.9080    6.8490 O.3     1  UNL1       -0.2168
@<TRIPOS>BOND
     1     2     1   ar
     2     3     2   ar
     3     4     3   ar
     4     5     4   ar
     5     6     5   ar
     6     6     1   ar
     7     7     5    1
     8     8     7    1
     9     9     8    1
    10    10     9    1
    11    10     6    1
    12    12    11    1
    13     9    12    1
    14    13     4    1
    15    14     3    1
    16    10    15    1
