@<TRIPOS>MOLECULE
8GGI_G1I_R501
 15 16 0 0 0
SMALL
GASTEIGER

@<TRIPOS>ATOM
      1 C         -29.6770   11.6050    6.7610 C.ar    1  UNL1        0.0014
      2 C         -28.4510   12.0750    6.3320 C.ar    1  UNL1        0.0451
      3 C         -27.3820   11.2040    6.0700 C.ar    1  UNL1        0.2339
      4 C         -27.6200    9.7880    6.2700 C.ar    1  UNL1        0.2300
      5 C         -28.9050    9.3200    6.7170 C.ar    1  UNL1        0.0185
      6 C         -29.9450   10.2350    6.9690 C.ar    1  UNL1        0.0084
      7 C         -29.1340    7.8180    6.9240 C.3     1  UNL1        0.0310
      8 C         -30.6080    7.3040    6.9980 C.3     1  UNL1        0.0251
      9 C         -31.7040    8.3590    6.7460 C.3     1  UNL1        0.1077
     10 C         -31.3140    9.7070    7.4440 C.3     1  UNL1        0.1899
     11 C         -33.6430    6.8590    6.2820 C.3     1  UNL1        0.1075
     12 N         -33.0370    7.8700    7.1670 N.3     1  UNL1       -0.2150
     13 O         -26.6440    8.9290    6.0360 O.3     1  UNL1       -0.2835
     14 O         -26.1820   11.6020    5.6540 O.3     1  UNL1       -0.2832
     15 O         -32.3090   10.6280    7.1350 O.3     1  UNL1       -0.2168
@<TRIPOS>BOND
     1     2     1   ar
     2     3     2   ar
     3     4     3   ar
     4     5     4   ar
     5     6     5   ar
     6     6     1   ar
     7     7     5    1
     8     8     7    1
     9     9     8    1
    10    10     9    1
    11    10     6    1
    12    12    11    1
    13     9    12    1
    14    13     4    1
    15    14     3    1
    16    10    15    1
