@<TRIPOS>MOLECULE
8GGK_G1I_R501
 15 16 0 0 0
SMALL
GASTEIGER

@<TRIPOS>ATOM
      1 C         -29.5790   11.7140    6.6580 C.ar    1  UNL1        0.0014
      2 C         -28.3750   12.2270    6.2230 C.ar    1  UNL1        0.0451
      3 C         -27.2570   11.4020    6.0180 C.ar    1  UNL1        0.2339
      4 C         -27.4220    9.9870    6.2790 C.ar    1  UNL1        0.2300
      5 C         -28.6850    9.4720    6.7280 C.ar    1  UNL1        0.0185
      6 C         -29.7760   10.3440    6.9230 C.ar    1  UNL1        0.0084
      7 C         -28.8320    7.9720    7.0000 C.3     1  UNL1        0.0310
      8 C         -30.2760    7.3970    7.1280 C.3     1  UNL1        0.0251
      9 C         -31.4110    8.3680    6.7620 C.3     1  UNL1        0.1077
     10 C         -31.1190    9.7670    7.4020 C.3     1  UNL1        0.1899
     11 C         -33.0080    6.4660    6.7050 C.3     1  UNL1        0.1075
     12 N         -32.7360    7.8360    7.1460 N.3     1  UNL1       -0.2150
     13 O         -26.3990    9.1750    6.1000 O.3     1  UNL1       -0.2835
     14 O         -26.0730   11.8420    5.6030 O.3     1  UNL1       -0.2832
     15 O         -32.1560   10.6170    7.0380 O.3     1  UNL1       -0.2168
@<TRIPOS>BOND
     1     2     1   ar
     2     3     2   ar
     3     4     3   ar
     4     5     4   ar
     5     6     5   ar
     6     6     1   ar
     7     7     5    1
     8     8     7    1
     9     9     8    1
    10    10     9    1
    11    10     6    1
    12    12    11    1
    13     9    12    1
    14    13     4    1
    15    14     3    1
    16    10    15    1
