@<TRIPOS>MOLECULE
8GGL_G1I_R501
 15 16 0 0 0
SMALL
GASTEIGER

@<TRIPOS>ATOM
      1 C         -29.5890   11.7240    6.7100 C.ar    1  UNL1        0.0014
      2 C         -28.4050   12.2690    6.2640 C.ar    1  UNL1        0.0451
      3 C         -27.2810   11.4710    6.0090 C.ar    1  UNL1        0.2339
      4 C         -27.4140   10.0480    6.2330 C.ar    1  UNL1        0.2300
      5 C         -28.6590    9.4970    6.6980 C.ar    1  UNL1        0.0185
      6 C         -29.7590   10.3460    6.9410 C.ar    1  UNL1        0.0084
      7 C         -28.7740    7.9870    6.9290 C.3     1  UNL1        0.0310
      8 C         -30.1950    7.3930    7.1550 C.3     1  UNL1        0.0251
      9 C         -31.3630    8.3310    6.8190 C.3     1  UNL1        0.1077
     10 C         -31.0870    9.7420    7.4360 C.3     1  UNL1        0.1899
     11 C         -33.0900    6.5700    6.5410 C.3     1  UNL1        0.1075
     12 N         -32.6550    7.7690    7.2620 N.3     1  UNL1       -0.2150
     13 O         -26.3790    9.2590    6.0070 O.3     1  UNL1       -0.2835
     14 O         -26.1150   11.9430    5.5810 O.3     1  UNL1       -0.2832
     15 O         -32.1460   10.5650    7.0700 O.3     1  UNL1       -0.2168
@<TRIPOS>BOND
     1     2     1   ar
     2     3     2   ar
     3     4     3   ar
     4     5     4   ar
     5     6     5   ar
     6     6     1   ar
     7     7     5    1
     8     8     7    1
     9     9     8    1
    10    10     9    1
    11    10     6    1
    12    12    11    1
    13     9    12    1
    14    13     4    1
    15    14     3    1
    16    10    15    1
