@<TRIPOS>MOLECULE
8GGM_G1I_R501
 15 16 0 0 0
SMALL
GASTEIGER

@<TRIPOS>ATOM
      1 C         -29.6600   11.7150    6.6800 C.ar    1  UNL1        0.0014
      2 C         -28.5110   12.3110    6.2000 C.ar    1  UNL1        0.0451
      3 C         -27.3470   11.5690    5.9400 C.ar    1  UNL1        0.2339
      4 C         -27.4030   10.1430    6.1970 C.ar    1  UNL1        0.2300
      5 C         -28.6110    9.5380    6.6970 C.ar    1  UNL1        0.0185
      6 C         -29.7530   10.3330    6.9440 C.ar    1  UNL1        0.0084
      7 C         -28.6440    8.0220    6.9650 C.3     1  UNL1        0.0310
      8 C         -30.0300    7.3590    7.2350 C.3     1  UNL1        0.0251
      9 C         -31.2570    8.2270    6.9030 C.3     1  UNL1        0.1077
     10 C         -31.0420    9.6710    7.4780 C.3     1  UNL1        0.1899
     11 C         -32.9340    6.4010    6.6560 C.3     1  UNL1        0.1075
     12 N         -32.5100    7.6060    7.3860 N.3     1  UNL1       -0.2150
     13 O         -26.3300    9.4040    5.9680 O.3     1  UNL1       -0.2835
     14 O         -26.2140   12.0950    5.4780 O.3     1  UNL1       -0.2832
     15 O         -32.1510   10.4300    7.1190 O.3     1  UNL1       -0.2168
@<TRIPOS>BOND
     1     2     1   ar
     2     3     2   ar
     3     4     3   ar
     4     5     4   ar
     5     6     5   ar
     6     6     1   ar
     7     7     5    1
     8     8     7    1
     9     9     8    1
    10    10     9    1
    11    10     6    1
    12    12    11    1
    13     9    12    1
    14    13     4    1
    15    14     3    1
    16    10    15    1
