@<TRIPOS>MOLECULE
8GGN_G1I_R501
 15 16 0 0 0
SMALL
GASTEIGER

@<TRIPOS>ATOM
      1 C         -29.6150   11.5650    6.7410 C.ar    1  UNL1        0.0014
      2 C         -28.4620   12.1480    6.2560 C.ar    1  UNL1        0.0451
      3 C         -27.3200   11.3880    5.9630 C.ar    1  UNL1        0.2339
      4 C         -27.4010    9.9610    6.1910 C.ar    1  UNL1        0.2300
      5 C         -28.6150    9.3710    6.6940 C.ar    1  UNL1        0.0185
      6 C         -29.7330   10.1820    6.9750 C.ar    1  UNL1        0.0084
      7 C         -28.6770    7.8550    6.9300 C.3     1  UNL1        0.0310
      8 C         -30.0770    7.2090    7.1700 C.3     1  UNL1        0.0251
      9 C         -31.2880    8.1150    6.8980 C.3     1  UNL1        0.1077
     10 C         -31.0250    9.5360    7.5120 C.3     1  UNL1        0.1899
     11 C         -33.4040    6.9060    6.3700 C.3     1  UNL1        0.1075
     12 N         -32.5420    7.5040    7.3980 N.3     1  UNL1       -0.2150
     13 O         -26.3480    9.2070    5.9290 O.3     1  UNL1       -0.2835
     14 O         -26.1830   11.8980    5.4970 O.3     1  UNL1       -0.2832
     15 O         -32.1110   10.3380    7.1950 O.3     1  UNL1       -0.2168
@<TRIPOS>BOND
     1     2     1   ar
     2     3     2   ar
     3     4     3   ar
     4     5     4   ar
     5     6     5   ar
     6     6     1   ar
     7     7     5    1
     8     8     7    1
     9     9     8    1
    10    10     9    1
    11    10     6    1
    12    12    11    1
    13     9    12    1
    14    13     4    1
    15    14     3    1
    16    10    15    1
