@<TRIPOS>MOLECULE
8GGP_G1I_R501
 15 16 0 0 0
SMALL
GASTEIGER

@<TRIPOS>ATOM
      1 C         -29.4090   11.6110    6.7180 C.ar    1  UNL1        0.0014
      2 C         -28.2120   12.1020    6.2410 C.ar    1  UNL1        0.0451
      3 C         -27.1290   11.2550    5.9560 C.ar    1  UNL1        0.2339
      4 C         -27.3220    9.8380    6.1850 C.ar    1  UNL1        0.2300
      5 C         -28.5820    9.3440    6.6830 C.ar    1  UNL1        0.0185
      6 C         -29.6360   10.2400    6.9560 C.ar    1  UNL1        0.0084
      7 C         -28.7640    7.8360    6.9200 C.3     1  UNL1        0.0310
      8 C         -30.2140    7.2960    7.1310 C.3     1  UNL1        0.0251
      9 C         -31.3500    8.3010    6.8690 C.3     1  UNL1        0.1077
     10 C         -30.9790    9.6950    7.4860 C.3     1  UNL1        0.1899
     11 C         -33.1110    6.5410    6.7540 C.3     1  UNL1        0.1075
     12 N         -32.6490    7.7960    7.3680 N.3     1  UNL1       -0.2150
     13 O         -26.3280    9.0050    5.9320 O.3     1  UNL1       -0.2835
     14 O         -25.9530   11.6740    5.4960 O.3     1  UNL1       -0.2832
     15 O         -32.0060   10.5750    7.1640 O.3     1  UNL1       -0.2168
@<TRIPOS>BOND
     1     2     1   ar
     2     3     2   ar
     3     4     3   ar
     4     5     4   ar
     5     6     5   ar
     6     6     1   ar
     7     7     5    1
     8     8     7    1
     9     9     8    1
    10    10     9    1
    11    10     6    1
    12    12    11    1
    13     9    12    1
    14    13     4    1
    15    14     3    1
    16    10    15    1
