@<TRIPOS>MOLECULE
8GGQ_G1I_R501
 15 16 0 0 0
SMALL
GASTEIGER

@<TRIPOS>ATOM
      1 C         -29.6220   11.4760    6.8060 C.ar    1  UNL1        0.0014
      2 C         -28.4460   12.0080    6.3100 C.ar    1  UNL1        0.0451
      3 C         -27.3560   11.1910    5.9690 C.ar    1  UNL1        0.2339
      4 C         -27.5170    9.7630    6.1590 C.ar    1  UNL1        0.2300
      5 C         -28.7520    9.2320    6.6750 C.ar    1  UNL1        0.0185
      6 C         -29.8130   10.0940    7.0050 C.ar    1  UNL1        0.0084
      7 C         -28.9080    7.7220    6.8730 C.3     1  UNL1        0.0310
      8 C         -30.3550    7.1320    6.8760 C.3     1  UNL1        0.0251
      9 C         -31.5260    8.1420    6.8490 C.3     1  UNL1        0.1077
     10 C         -31.1240    9.4910    7.5570 C.3     1  UNL1        0.1899
     11 C         -33.5950    6.7850    6.4940 C.3     1  UNL1        0.1075
     12 N         -32.7550    7.5500    7.4340 N.3     1  UNL1       -0.2150
     13 O         -26.5190    8.9500    5.8530 O.3     1  UNL1       -0.2835
     14 O         -26.2010   11.6470    5.4880 O.3     1  UNL1       -0.2832
     15 O         -32.1720   10.3870    7.3630 O.3     1  UNL1       -0.2168
@<TRIPOS>BOND
     1     2     1   ar
     2     3     2   ar
     3     4     3   ar
     4     5     4   ar
     5     6     5   ar
     6     6     1   ar
     7     7     5    1
     8     8     7    1
     9     9     8    1
    10    10     9    1
    11    10     6    1
    12    12    11    1
    13     9    12    1
    14    13     4    1
    15    14     3    1
    16    10    15    1
