@<TRIPOS>MOLECULE
8GGR_G1I_R501
 15 16 0 0 0
SMALL
GASTEIGER

@<TRIPOS>ATOM
      1 C         -29.7790   11.4070    6.7860 C.ar    1  UNL1        0.0014
      2 C         -28.5940   11.9080    6.2840 C.ar    1  UNL1        0.0451
      3 C         -27.5150   11.0670    5.9710 C.ar    1  UNL1        0.2339
      4 C         -27.6980    9.6480    6.2010 C.ar    1  UNL1        0.2300
      5 C         -28.9430    9.1510    6.7230 C.ar    1  UNL1        0.0185
      6 C         -29.9920   10.0350    7.0230 C.ar    1  UNL1        0.0084
      7 C         -29.1180    7.6490    6.9610 C.3     1  UNL1        0.0310
      8 C         -30.5720    7.0800    7.0580 C.3     1  UNL1        0.0251
      9 C         -31.7190    8.0980    6.9180 C.3     1  UNL1        0.1077
     10 C         -31.3170    9.4630    7.5850 C.3     1  UNL1        0.1899
     11 C         -33.5760    6.4490    6.7120 C.3     1  UNL1        0.1075
     12 N         -32.9820    7.5630    7.4670 N.3     1  UNL1       -0.2150
     13 O         -26.7120    8.8120    5.9230 O.3     1  UNL1       -0.2835
     14 O         -26.3530   11.4970    5.4860 O.3     1  UNL1       -0.2832
     15 O         -32.3590   10.3590    7.3610 O.3     1  UNL1       -0.2168
@<TRIPOS>BOND
     1     2     1   ar
     2     3     2   ar
     3     4     3   ar
     4     5     4   ar
     5     6     5   ar
     6     6     1   ar
     7     7     5    1
     8     8     7    1
     9     9     8    1
    10    10     9    1
    11    10     6    1
    12    12    11    1
    13     9    12    1
    14    13     4    1
    15    14     3    1
    16    10    15    1
