@<TRIPOS>MOLECULE
8UNL_G1I_R501
 15 16 0 0 0
SMALL
GASTEIGER

@<TRIPOS>ATOM
      1 C         -29.4440   11.4930    6.6750 C.ar    1  UNL1        0.0014
      2 C         -28.2090   11.9390    6.2460 C.ar    1  UNL1        0.0451
      3 C         -27.1180   11.0630    6.1070 C.ar    1  UNL1        0.2339
      4 C         -27.3460    9.6680    6.4350 C.ar    1  UNL1        0.2300
      5 C         -28.6430    9.2250    6.8800 C.ar    1  UNL1        0.0185
      6 C         -29.7020   10.1450    7.0040 C.ar    1  UNL1        0.0084
      7 C         -28.8650    7.7430    7.2260 C.3     1  UNL1        0.0310
      8 C         -30.3360    7.2070    7.2670 C.3     1  UNL1        0.0251
      9 C         -31.4440    8.2250    6.9030 C.3     1  UNL1        0.1077
     10 C         -31.0830    9.6420    7.4840 C.3     1  UNL1        0.1899
     11 C         -33.0430    6.3170    7.2330 C.3     1  UNL1        0.1075
     12 N         -32.7920    7.7680    7.3370 N.3     1  UNL1       -0.2150
     13 O         -26.3490    8.8040    6.3220 O.3     1  UNL1       -0.2835
     14 O         -25.9060   11.4400    5.6980 O.3     1  UNL1       -0.2832
     15 O         -32.0820   10.5260    7.0790 O.3     1  UNL1       -0.2168
@<TRIPOS>BOND
     1     2     1   ar
     2     3     2   ar
     3     4     3   ar
     4     5     4   ar
     5     6     5   ar
     6     6     1   ar
     7     7     5    1
     8     8     7    1
     9     9     8    1
    10    10     9    1
    11    10     6    1
    12    12    11    1
    13     9    12    1
    14    13     4    1
    15    14     3    1
    16    10    15    1
