@<TRIPOS>MOLECULE
8UNO_G1I_R501
 15 16 0 0 0
SMALL
GASTEIGER

@<TRIPOS>ATOM
      1 C         -29.5560   11.6070    6.5900 C.ar    1  UNL1        0.0014
      2 C         -28.3300   12.0240    6.1070 C.ar    1  UNL1        0.0451
      3 C         -27.2460   11.1400    5.9910 C.ar    1  UNL1        0.2339
      4 C         -27.4720    9.7690    6.4000 C.ar    1  UNL1        0.2300
      5 C         -28.7550    9.3550    6.8990 C.ar    1  UNL1        0.0185
      6 C         -29.8100   10.2820    6.9990 C.ar    1  UNL1        0.0084
      7 C         -28.9640    7.8980    7.3280 C.3     1  UNL1        0.0310
      8 C         -30.4330    7.3920    7.5120 C.3     1  UNL1        0.0251
      9 C         -31.5300    8.3650    7.0400 C.3     1  UNL1        0.1077
     10 C         -31.1830    9.8050    7.5380 C.3     1  UNL1        0.1899
     11 C         -33.2550    6.5620    7.0610 C.3     1  UNL1        0.1075
     12 N         -32.8800    7.9300    7.4630 N.3     1  UNL1       -0.2150
     13 O         -26.4830    8.8980    6.3110 O.3     1  UNL1       -0.2835
     14 O         -26.0440   11.4840    5.5340 O.3     1  UNL1       -0.2832
     15 O         -32.1960   10.6430    7.0890 O.3     1  UNL1       -0.2168
@<TRIPOS>BOND
     1     2     1   ar
     2     3     2   ar
     3     4     3   ar
     4     5     4   ar
     5     6     5   ar
     6     6     1   ar
     7     7     5    1
     8     8     7    1
     9     9     8    1
    10    10     9    1
    11    10     6    1
    12    12    11    1
    13     9    12    1
    14    13     4    1
    15    14     3    1
    16    10    15    1
