@<TRIPOS>MOLECULE
8UNP_G1I_R501
 15 16 0 0 0
SMALL
GASTEIGER

@<TRIPOS>ATOM
      1 C         -29.7050   11.6480    6.9870 C.ar    1  UNL1        0.0014
      2 C         -28.5110   12.2060    6.5730 C.ar    1  UNL1        0.0451
      3 C         -27.3970   11.4120    6.2670 C.ar    1  UNL1        0.2339
      4 C         -27.5550    9.9780    6.4060 C.ar    1  UNL1        0.2300
      5 C         -28.8060    9.4200    6.8380 C.ar    1  UNL1        0.0185
      6 C         -29.8930   10.2620    7.1350 C.ar    1  UNL1        0.0084
      7 C         -28.9440    7.8990    6.9780 C.3     1  UNL1        0.0310
      8 C         -30.3830    7.3050    7.1090 C.3     1  UNL1        0.0251
      9 C         -31.5350    8.2940    6.8630 C.3     1  UNL1        0.1077
     10 C         -31.2270    9.6390    7.5940 C.3     1  UNL1        0.1899
     11 C         -33.2430    6.5310    6.5180 C.3     1  UNL1        0.1075
     12 N         -32.8340    7.7270    7.2640 N.3     1  UNL1       -0.2150
     13 O         -26.5360    9.1830    6.1330 O.3     1  UNL1       -0.2835
     14 O         -26.2230   11.8960    5.8640 O.3     1  UNL1       -0.2832
     15 O         -32.2750   10.5030    7.3080 O.3     1  UNL1       -0.2168
@<TRIPOS>BOND
     1     2     1   ar
     2     3     2   ar
     3     4     3   ar
     4     5     4   ar
     5     6     5   ar
     6     6     1   ar
     7     7     5    1
     8     8     7    1
     9     9     8    1
    10    10     9    1
    11    10     6    1
    12    12    11    1
    13     9    12    1
    14    13     4    1
    15    14     3    1
    16    10    15    1
