@<TRIPOS>MOLECULE
8UNQ_G1I_R501
 15 16 0 0 0
SMALL
GASTEIGER

@<TRIPOS>ATOM
      1 C         -29.4620   11.6230    6.8940 C.ar    1  UNL1        0.0014
      2 C         -28.2370   12.0210    6.3930 C.ar    1  UNL1        0.0451
      3 C         -27.2380   11.0880    6.0680 C.ar    1  UNL1        0.2339
      4 C         -27.5510    9.6870    6.2840 C.ar    1  UNL1        0.2300
      5 C         -28.8390    9.2970    6.8080 C.ar    1  UNL1        0.0185
      6 C         -29.8030   10.2750    7.1190 C.ar    1  UNL1        0.0084
      7 C         -29.1550    7.8090    7.0320 C.3     1  UNL1        0.0310
      8 C         -30.6600    7.3840    7.1450 C.3     1  UNL1        0.0251
      9 C         -31.7030    8.5180    6.9860 C.3     1  UNL1        0.1077
     10 C         -31.1760    9.8310    7.6750 C.3     1  UNL1        0.1899
     11 C         -33.3990    6.6940    7.3270 C.3     1  UNL1        0.1075
     12 N         -33.0510    8.1220    7.4810 N.3     1  UNL1       -0.2150
     13 O         -26.6420    8.7690    5.9940 O.3     1  UNL1       -0.2835
     14 O         -26.0390   11.4150    5.5830 O.3     1  UNL1       -0.2832
     15 O         -32.1270   10.8260    7.4600 O.3     1  UNL1       -0.2168
@<TRIPOS>BOND
     1     2     1   ar
     2     3     2   ar
     3     4     3   ar
     4     5     4   ar
     5     6     5   ar
     6     6     1   ar
     7     7     5    1
     8     8     7    1
     9     9     8    1
    10    10     9    1
    11    10     6    1
    12    12    11    1
    13     9    12    1
    14    13     4    1
    15    14     3    1
    16    10    15    1
