@<TRIPOS>MOLECULE
8UNS_G1I_R501
 15 16 0 0 0
SMALL
GASTEIGER

@<TRIPOS>ATOM
      1 C         -29.3430   11.7960    6.7690 C.ar    1  UNL1        0.0014
      2 C         -28.1880   12.3110    6.2200 C.ar    1  UNL1        0.0451
      3 C         -27.1000   11.4850    5.8990 C.ar    1  UNL1        0.2339
      4 C         -27.2440   10.0680    6.1720 C.ar    1  UNL1        0.2300
      5 C         -28.4620    9.5560    6.7450 C.ar    1  UNL1        0.0185
      6 C         -29.5210   10.4300    7.0500 C.ar    1  UNL1        0.0084
      7 C         -28.6050    8.0550    7.0330 C.3     1  UNL1        0.0310
      8 C         -30.0540    7.4710    7.1630 C.3     1  UNL1        0.0251
      9 C         -31.2160    8.4850    7.0200 C.3     1  UNL1        0.1077
     10 C         -30.8140    9.8580    7.6600 C.3     1  UNL1        0.1899
     11 C         -32.6590    6.5020    7.5550 C.3     1  UNL1        0.1075
     12 N         -32.4930    7.9670    7.5780 N.3     1  UNL1       -0.2150
     13 O         -26.2460    9.2510    5.8890 O.3     1  UNL1       -0.2835
     14 O         -25.9620   11.9260    5.3680 O.3     1  UNL1       -0.2832
     15 O         -31.8670   10.7360    7.4380 O.3     1  UNL1       -0.2168
@<TRIPOS>BOND
     1     2     1   ar
     2     3     2   ar
     3     4     3   ar
     4     5     4   ar
     5     6     5   ar
     6     6     1   ar
     7     7     5    1
     8     8     7    1
     9     9     8    1
    10    10     9    1
    11    10     6    1
    12    12    11    1
    13     9    12    1
    14    13     4    1
    15    14     3    1
    16    10    15    1
