@<TRIPOS>MOLECULE
8UNS_G1I_R501
 15 16 0 0 0
SMALL
GASTEIGER

@<TRIPOS>ATOM
      1 C         -29.3840   11.8280    6.8310 C.ar    1  UNL1        0.0014
      2 C         -28.2120   12.3360    6.3120 C.ar    1  UNL1        0.0451
      3 C         -27.1350   11.5000    5.9830 C.ar    1  UNL1        0.2339
      4 C         -27.3070   10.0790    6.2160 C.ar    1  UNL1        0.2300
      5 C         -28.5410    9.5730    6.7580 C.ar    1  UNL1        0.0185
      6 C         -29.5890   10.4580    7.0720 C.ar    1  UNL1        0.0084
      7 C         -28.7140    8.0690    7.0030 C.3     1  UNL1        0.0310
      8 C         -30.1750    7.5070    7.0970 C.3     1  UNL1        0.0251
      9 C         -31.3170    8.5440    6.9660 C.3     1  UNL1        0.1077
     10 C         -30.9000    9.8930    7.6490 C.3     1  UNL1        0.1899
     11 C         -32.8020    6.5740    7.4280 C.3     1  UNL1        0.1075
     12 N         -32.6110    8.0350    7.4930 N.3     1  UNL1       -0.2150
     13 O         -26.3190    9.2520    5.9240 O.3     1  UNL1       -0.2835
     14 O         -25.9810   11.9350    5.4790 O.3     1  UNL1       -0.2832
     15 O         -31.9340   10.7950    7.4360 O.3     1  UNL1       -0.2168
@<TRIPOS>BOND
     1     2     1   ar
     2     3     2   ar
     3     4     3   ar
     4     5     4   ar
     5     6     5   ar
     6     6     1   ar
     7     7     5    1
     8     8     7    1
     9     9     8    1
    10    10     9    1
    11    10     6    1
    12    12    11    1
    13     9    12    1
    14    13     4    1
    15    14     3    1
    16    10    15    1
