@<TRIPOS>MOLECULE
8UNT_G1I_R501
 15 16 0 0 0
SMALL
GASTEIGER

@<TRIPOS>ATOM
      1 C         -29.7500   11.4780    6.9220 C.ar    1  UNL1        0.0014
      2 C         -28.5190   11.9980    6.5930 C.ar    1  UNL1        0.0451
      3 C         -27.4040   11.1760    6.4190 C.ar    1  UNL1        0.2339
      4 C         -27.6000    9.7530    6.5990 C.ar    1  UNL1        0.2300
      5 C         -28.8930    9.2360    6.9420 C.ar    1  UNL1        0.0185
      6 C         -29.9830   10.1090    7.1080 C.ar    1  UNL1        0.0084
      7 C         -29.0700    7.7320    7.1300 C.3     1  UNL1        0.0310
      8 C         -30.4990    7.2230    7.4490 C.3     1  UNL1        0.0251
      9 C         -31.5960    8.1240    6.9050 C.3     1  UNL1        0.1077
     10 C         -31.3670    9.5470    7.4740 C.3     1  UNL1        0.1899
     11 C         -32.9530    6.1810    7.5970 C.3     1  UNL1        0.1075
     12 N         -32.9290    7.5990    7.2180 N.3     1  UNL1       -0.2150
     13 O         -26.5780    8.9340    6.4470 O.3     1  UNL1       -0.2835
     14 O         -26.2000   11.6260    6.1040 O.3     1  UNL1       -0.2832
     15 O         -32.3440   10.3580    6.9410 O.3     1  UNL1       -0.2168
@<TRIPOS>BOND
     1     2     1   ar
     2     3     2   ar
     3     4     3   ar
     4     5     4   ar
     5     6     5   ar
     6     6     1   ar
     7     7     5    1
     8     8     7    1
     9     9     8    1
    10    10     9    1
    11    10     6    1
    12    12    11    1
    13     9    12    1
    14    13     4    1
    15    14     3    1
    16    10    15    1
