@<TRIPOS>MOLECULE
8UNV_G1I_R501
 15 16 0 0 0
SMALL
GASTEIGER

@<TRIPOS>ATOM
      1 C         -29.3370   11.3480    6.5890 C.ar    1  UNL1        0.0014
      2 C         -28.0710   11.7490    6.2060 C.ar    1  UNL1        0.0451
      3 C         -27.0230   10.8250    6.0510 C.ar    1  UNL1        0.2339
      4 C         -27.3310    9.4280    6.3100 C.ar    1  UNL1        0.2300
      5 C         -28.6610    9.0370    6.7070 C.ar    1  UNL1        0.0185
      6 C         -29.6710   10.0040    6.8500 C.ar    1  UNL1        0.0084
      7 C         -28.9750    7.5600    6.9820 C.3     1  UNL1        0.0310
      8 C         -30.4710    7.1000    6.8940 C.3     1  UNL1        0.0251
      9 C         -31.5020    8.2070    6.5700 C.3     1  UNL1        0.1077
     10 C         -31.0820    9.5480    7.2730 C.3     1  UNL1        0.1899
     11 C         -33.2990    6.4790    6.4100 C.3     1  UNL1        0.1075
     12 N         -32.8850    7.8010    6.9170 N.3     1  UNL1       -0.2150
     13 O         -26.3800    8.5190    6.1800 O.3     1  UNL1       -0.2835
     14 O         -25.7840   11.1570    5.6850 O.3     1  UNL1       -0.2832
     15 O         -32.0220   10.5100    6.9170 O.3     1  UNL1       -0.2168
@<TRIPOS>BOND
     1     2     1   ar
     2     3     2   ar
     3     4     3   ar
     4     5     4   ar
     5     6     5   ar
     6     6     1   ar
     7     7     5    1
     8     8     7    1
     9     9     8    1
    10    10     9    1
    11    10     6    1
    12    12    11    1
    13     9    12    1
    14    13     4    1
    15    14     3    1
    16    10    15    1
