@<TRIPOS>MOLECULE
9LW5_LDP_R401
 11 11 0 0 0
SMALL
GASTEIGER

@<TRIPOS>ATOM
      1 C         -30.8920    9.6980    7.0650 C.3     1  UNL1        0.0469
      2 C         -29.6010   10.2620    6.6480 C.ar    1  UNL1       -0.0173
      3 C         -27.2290   11.2320    5.9180 C.ar    1  UNL1        0.2342
      4 C         -28.5190    9.4520    6.6110 C.ar    1  UNL1        0.0412
      5 C         -29.5130   11.5790    6.3360 C.ar    1  UNL1       -0.0007
      6 C         -28.3140   12.0790    5.9590 C.ar    1  UNL1        0.0451
      7 C         -27.2960    9.9610    6.2240 C.ar    1  UNL1        0.2339
      8 O         -26.1480    9.1210    6.1540 O.3     1  UNL1       -0.2832
      9 O         -25.9840   11.7240    5.5210 O.3     1  UNL1       -0.2831
     10 C         -31.6400   10.8630    7.8580 C.3     1  UNL1        0.1140
     11 N         -32.9910   10.3440    8.1090 N.3     1  UNL1       -0.1310
@<TRIPOS>BOND
     1     2     1    1
     2     4     2   ar
     3     5     2   ar
     4     6     5   ar
     5     6     3   ar
     6     7     4   ar
     7     7     3   ar
     8     8     7    1
     9     9     3    1
    10    10     1    1
    11    11    10    1
