@<TRIPOS>MOLECULE
9LW5_LDP_R401
 11 11 0 0 0
SMALL
GASTEIGER

@<TRIPOS>ATOM
      1 C         -30.8820    9.6140    7.0570 C.3     1  UNL1        0.0469
      2 C         -29.5930   10.1850    6.6430 C.ar    1  UNL1       -0.0173
      3 C         -27.2250   11.1680    5.9180 C.ar    1  UNL1        0.2342
      4 C         -28.5040    9.3820    6.6170 C.ar    1  UNL1        0.0412
      5 C         -29.5130   11.5000    6.3230 C.ar    1  UNL1       -0.0007
      6 C         -28.3160   12.0070    5.9480 C.ar    1  UNL1        0.0451
      7 C         -27.2840    9.8990    6.2320 C.ar    1  UNL1        0.2339
      8 O         -26.1290    9.0660    6.1740 O.3     1  UNL1       -0.2832
      9 O         -25.9820   11.6660    5.5230 O.3     1  UNL1       -0.2831
     10 C         -31.6420   10.7790    7.8390 C.3     1  UNL1        0.1140
     11 N         -32.9910   10.2510    8.0870 N.3     1  UNL1       -0.1310
@<TRIPOS>BOND
     1     2     1    1
     2     4     2   ar
     3     5     2   ar
     4     6     5   ar
     5     6     3   ar
     6     7     4   ar
     7     7     3   ar
     8     8     7    1
     9     9     3    1
    10    10     1    1
    11    11    10    1
