@<TRIPOS>MOLECULE
9RKH_A1JHU_A510
 53 54 0 0 0
SMALL
GASTEIGER

@<TRIPOS>ATOM
      1  C16      -27.5750   12.4570    5.2810 C.ar  510  A1J510     -0.0582
      2  C13      -27.7400    9.9840    6.5030 C.ar  510  A1J510      0.1276
      3  C10      -26.3150    4.3900    8.2350 C.ar  510  A1J510     -0.0384
      4  C14      -28.7600   10.9020    6.6710 C.ar  510  A1J510      0.1476
      5  C18      -26.6370   10.2940    5.7250 C.ar  510  A1J510     -0.0309
      6  C26      -32.6770    5.9420    8.4220 C.3   510  A1J510     -0.0499
      7  C25      -33.3810    6.9280    7.4920 C.3   510  A1J510      0.0021
      8  C23      -32.3260    9.0370    7.3200 C.3   510  A1J510      0.0254
      9  C01      -28.9930    0.8820   10.5310 C.3   510  A1J510      0.0125
     10  C02      -28.8880    2.2260    9.8130 C.2   510  A1J510      0.2141
     11  C05      -27.4440    4.1500    9.0030 C.ar  510  A1J510      0.0335
     12  C06      -28.4150    5.1320    9.1250 C.ar  510  A1J510     -0.0384
     13  C07      -28.2600    6.3450    8.4760 C.ar  510  A1J510     -0.0328
     14  C08      -27.1320    6.5810    7.7080 C.ar  510  A1J510      0.0863
     15  C09      -26.1590    5.6050    7.5860 C.ar  510  A1J510     -0.0328
     16  C15      -28.6770   12.1440    6.0600 C.ar  510  A1J510     -0.0178
     17  C17      -26.5560   11.5330    5.1130 C.ar  510  A1J510     -0.0595
     18  C20      -31.0730   11.1680    7.1770 C.3   510  A1J510      0.1167
     19  C21      -32.1550   10.4150    7.9450 C.3   510  A1J510      0.1015
     20  C27      -34.8440    6.5540    7.2640 C.3   510  A1J510     -0.0499
     21  N04      -27.5900    2.8710    9.6800 N.am  510  A1J510     -0.2857
     22  N11      -26.9760    7.8550    7.0330 N.2   510  A1J510     -0.1492
     23  N12      -27.8450    8.6920    7.1560 N.2   510  A1J510     -0.1456
     24  N24      -33.3070    8.2620    8.0540 N.3   510  A1J510     -0.3112
     25  O03      -29.8640    2.7290    9.3710 O.2   510  A1J510     -0.2758
     26  O19      -29.8540   10.5480    7.4700 O.3   510  A1J510     -0.4872
     27  O22      -33.3710   11.1080    7.8830 O.3   510  A1J510     -0.3872
     28 H161      -27.5090   13.4260    4.8010 H     510  A1J510      0.0619
     29 H101      -25.5520    3.6270    8.1420 H     510  A1J510      0.0637
     30 H181      -25.8410    9.5710    5.5970 H     510  A1J510      0.0640
     31 H262      -32.8250    4.9300    8.0580 H     510  A1J510      0.0245
     32 H261      -33.0890    6.0310    9.4230 H     510  A1J510      0.0245
     33 H263      -31.6130    6.1660    8.4470 H     510  A1J510      0.0245
     34 H251      -32.8710    6.9220    6.5360 H     510  A1J510      0.0455
     35 H232      -31.3740    8.5150    7.3370 H     510  A1J510      0.0450
     36 H231      -32.6540    9.1480    6.2910 H     510  A1J510      0.0450
     37 H012      -29.9210    0.3930   10.2500 H     510  A1J510      0.0323
     38 H011      -28.9810    1.0440   11.6060 H     510  A1J510      0.0323
     39 H013      -28.1530    0.2540   10.2500 H     510  A1J510      0.0323
     40 H061      -29.2950    4.9490    9.7270 H     510  A1J510      0.0637
     41 H071      -29.0220    7.1110    8.5700 H     510  A1J510      0.0640
     42 H091      -25.2770    5.7900    6.9850 H     510  A1J510      0.0640
     43 H151      -29.4720   12.8680    6.1910 H     510  A1J510      0.0655
     44 H171      -25.6950   11.7810    4.5030 H     510  A1J510      0.0618
     45 H202      -31.2690   11.1150    6.1110 H     510  A1J510      0.0723
     46 H201      -31.0460   12.2060    7.4940 H     510  A1J510      0.0723
     47 H211      -31.8640   10.3250    8.9830 H     510  A1J510      0.0640
     48 H271      -35.3870    6.6320    8.2000 H     510  A1J510      0.0245
     49 H272      -34.9030    5.5340    6.8950 H     510  A1J510      0.0245
     50 H273      -35.2800    7.2290    6.5330 H     510  A1J510      0.0245
     51 H041      -26.7800    2.4240   10.0630 H     510  A1J510      0.1548
     52  H1       -33.0390    8.2060    9.0170 H     510  A1J510      0.1223
     53 H221      -33.2630   11.9680    8.2600 H     510  A1J510      0.2100
@<TRIPOS>BOND
     1    44    17    1
     2    28     1    1
     3    17     1   ar
     4    17     5   ar
     5     1    16   ar
     6    30     5    1
     7     5     2   ar
     8    16    43    1
     9    16     4   ar
    10    45    18    1
    11    36     8    1
    12     2     4   ar
    13     2    23    1
    14    50    20    1
    15    34     7    1
    16     4    26    1
    17    49    20    1
    18    42    15    1
    19    22    23    2
    20    22    14    1
    21    18    26    1
    22    18    46    1
    23    18    19    1
    24    20     7    1
    25    20    48    1
    26     8    35    1
    27     8    19    1
    28     8    24    1
    29     7    24    1
    30     7     6    1
    31    15    14   ar
    32    15     3   ar
    33    14    13   ar
    34    27    19    1
    35    27    53    1
    36    19    47    1
    37    24    52    1
    38    31     6    1
    39    29     3    1
    40     3    11   ar
    41     6    33    1
    42     6    32    1
    43    13    41    1
    44    13    12   ar
    45    11    12   ar
    46    11    21    1
    47    12    40    1
    48    25    10    2
    49    21    10   am
    50    21    51    1
    51    10     9    1
    52    39     9    1
    53    37     9    1
    54     9    38    1
