@<TRIPOS>MOLECULE
4LDL_XQC_A1401
 23 24 0 0 0
SMALL
GASTEIGER

@<TRIPOS>ATOM
      1 C         -33.5070    6.3670    6.0480 C.3     1  UNL1        0.0178
      2 C         -33.3910    6.5690    7.5550 C.3     1  UNL1        0.0636
      3 C         -32.2440    5.7380    8.1140 C.3     1  UNL1        0.0178
      4 C         -34.7070    6.2470    8.2680 C.3     1  UNL1        0.0424
      5 C         -34.8940    4.7700    8.5610 C.ar    1  UNL1       -0.0206
      6 C         -35.1910    3.8670    7.5430 C.ar    1  UNL1       -0.0009
      7 C         -35.3670    2.5190    7.8290 C.ar    1  UNL1        0.0417
      8 C         -35.2600    2.0670    9.1400 C.ar    1  UNL1        0.1957
      9 C         -34.9740    2.9670   10.1600 C.ar    1  UNL1        0.0417
     10 C         -34.7990    4.3150    9.8720 C.ar    1  UNL1       -0.0009
     11 C         -31.8510    8.4940    7.2000 C.3     1  UNL1        0.1260
     12 C         -31.4550    9.8020    7.8740 C.3     1  UNL1        0.1916
     13 C         -30.2090   10.2910    7.2400 C.ar    1  UNL1        0.0125
     14 C         -30.0570   11.6300    6.9010 C.ar    1  UNL1        0.0017
     15 C         -28.8760   12.0630    6.3070 C.ar    1  UNL1        0.0452
     16 C         -27.8460   11.1620    6.0600 C.ar    1  UNL1        0.2342
     17 C         -27.9970    9.8300    6.4030 C.ar    1  UNL1        0.2340
     18 C         -29.1760    9.3940    6.9940 C.ar    1  UNL1        0.0436
     19 N         -33.0700    7.9630    7.7800 N.3     1  UNL1       -0.2174
     20 O         -35.4340    0.7460    9.4240 O.3     1  UNL1       -0.2866
     21 O         -32.5170   10.7560    7.7540 O.3     1  UNL1       -0.2167
     22 O         -26.6880   11.5860    5.4790 O.3     1  UNL1       -0.2831
     23 O         -26.9900    8.9450    6.1620 O.3     1  UNL1       -0.2832
@<TRIPOS>BOND
     1     2     1    1
     2     3     2    1
     3     4     2    1
     4     5     4    1
     5     6     5   ar
     6     7     6   ar
     7     8     7   ar
     8     9     8   ar
     9    10     9   ar
    10    10     5   ar
    11    12    11    1
    12    13    12    1
    13    14    13   ar
    14    15    14   ar
    15    16    15   ar
    16    17    16   ar
    17    18    17   ar
    18    18    13   ar
    19    19     2    1
    20    19    11    1
    21    20     8    1
    22    12    21    1
    23    22    16    1
    24    23    17    1
