@<TRIPOS>MOLECULE
6MXT_K5Y_A1401
 30 31 0 0 0
SMALL
GASTEIGER

@<TRIPOS>ATOM
      1 C         -29.2040    1.3180   12.9370 C.ar    1  UNL1       -0.0043
      2 C         -28.9450    0.7010   14.1580 C.ar    1  UNL1       -0.0003
      3 C         -29.0030   -0.6830   14.2660 C.ar    1  UNL1       -0.0000
      4 C         -29.3240   -1.4490   13.1530 C.ar    1  UNL1       -0.0003
      5 C         -29.5840   -0.8340   11.9320 C.ar    1  UNL1       -0.0043
      6 C         -29.5260    0.5510   11.8220 C.ar    1  UNL1       -0.0222
      7 C         -29.7890    1.1590   10.6000 C.3     1  UNL1        0.0264
      8 C         -31.1820    0.7420   10.1090 C.3     1  UNL1        0.0073
      9 C         -32.2550    1.3370   11.0260 C.3     1  UNL1        0.0324
     10 C         -33.6440    1.0020   10.4820 C.3     1  UNL1        0.1422
     11 O         -33.8960    1.7660    9.3040 O.3     1  UNL1       -0.3538
     12 C         -35.3040    1.9800    9.1870 C.3     1  UNL1        0.1422
     13 C         -35.5720    2.9180    8.0130 C.3     1  UNL1        0.0321
     14 C         -34.8230    4.2320    8.2510 C.3     1  UNL1        0.0026
     15 C         -35.1280    5.2120    7.1140 C.3     1  UNL1        0.0016
     16 C         -34.7190    6.6280    7.5240 C.3     1  UNL1        0.0188
     17 C         -33.2740    6.9110    7.0950 C.3     1  UNL1        0.0888
     18 N         -32.8820    8.2930    7.4310 N.3     1  UNL1       -0.2150
     19 C         -31.5390    8.6030    6.9190 C.3     1  UNL1        0.1260
     20 C         -31.0110    9.8900    7.5650 C.3     1  UNL1        0.1915
     21 O         -31.9560   10.9310    7.3210 O.3     1  UNL1       -0.2167
     22 C         -29.7920   10.2150    6.9890 C.ar    1  UNL1        0.0091
     23 C         -28.6850    9.3890    7.1730 C.ar    1  UNL1       -0.0004
     24 C         -29.6870   11.3670    6.2190 C.ar    1  UNL1        0.0015
     25 C         -28.4700   11.6970    5.6370 C.ar    1  UNL1        0.0415
     26 C         -27.3720   10.8720    5.8260 C.ar    1  UNL1        0.1941
     27 O         -26.1620   11.1560    5.2740 O.3     1  UNL1       -0.2868
     28 C         -27.4660    9.7170    6.5900 C.ar    1  UNL1        0.0493
     29 C         -26.3530    8.9050    6.7650 C.3     1  UNL1        0.2118
     30 O         -26.2330    8.0330    5.6390 O.3     1  UNL1       -0.2151
@<TRIPOS>BOND
     1     2     1   ar
     2     3     2   ar
     3     4     3   ar
     4     5     4   ar
     5     6     5   ar
     6     6     1   ar
     7     7     6    1
     8     8     7    1
     9     9     8    1
    10    10     9    1
    11    11    10    1
    12    12    11    1
    13    13    12    1
    14    14    13    1
    15    15    14    1
    16    16    15    1
    17    17    16    1
    18    18    17    1
    19    19    18    1
    20    20    19    1
    21    20    21    1
    22    22    20    1
    23    23    22   ar
    24    24    22   ar
    25    25    24   ar
    26    26    25   ar
    27    27    26    1
    28    28    26   ar
    29    28    23   ar
    30    29    28    1
    31    30    29    1
