@<TRIPOS>MOLECULE
8GG0_G1I_R501
 15 16 0 0 0
SMALL
GASTEIGER

@<TRIPOS>ATOM
      1 C         -29.4810   11.7190    6.6900 C.ar    1  UNL1        0.0014
      2 C         -28.3280   12.2910    6.1960 C.ar    1  UNL1        0.0451
      3 C         -27.1870   11.5260    5.9210 C.ar    1  UNL1        0.2339
      4 C         -27.2660   10.1030    6.1760 C.ar    1  UNL1        0.2300
      5 C         -28.4810    9.5240    6.6910 C.ar    1  UNL1        0.0185
      6 C         -29.6010   10.3420    6.9550 C.ar    1  UNL1        0.0084
      7 C         -28.5470    8.0130    6.9580 C.3     1  UNL1        0.0310
      8 C         -29.9500    7.3770    7.2060 C.3     1  UNL1        0.0251
      9 C         -31.1530    8.2820    6.8980 C.3     1  UNL1        0.1077
     10 C         -30.8980    9.7050    7.5020 C.3     1  UNL1        0.1899
     11 C         -32.8040    6.4440    6.6800 C.3     1  UNL1        0.1075
     12 N         -32.4140    7.6810    7.3720 N.3     1  UNL1       -0.2150
     13 O         -26.2110    9.3470    5.9310 O.3     1  UNL1       -0.2835
     14 O         -26.0510   12.0290    5.4470 O.3     1  UNL1       -0.2832
     15 O         -31.9920   10.4970    7.1730 O.3     1  UNL1       -0.2168
@<TRIPOS>BOND
     1     2     1   ar
     2     3     2   ar
     3     4     3   ar
     4     5     4   ar
     5     6     5   ar
     6     6     1   ar
     7     7     5    1
     8     8     7    1
     9     9     8    1
    10    10     9    1
    11    10     6    1
    12    12    11    1
    13     9    12    1
    14    13     4    1
    15    14     3    1
    16    10    15    1
