8W1V_A1AE2_B1201
     RDKit          3D

 42 44  0  0  0  0  0  0  0  0999 V2000
  -26.6610   12.4090    5.0710 C   0  0  0  0  0  0  0  0  0  0  0  0
  -33.2860    6.0660    6.7820 C   0  0  0  0  0  0  0  0  0  0  0  0
  -26.5600   11.2060    5.5890 C   0  0  0  0  0  0  0  0  0  0  0  0
  -27.7500   10.5940    6.3240 C   0  0  0  0  0  0  0  0  0  0  0  0
  -32.2030   10.4530    7.7390 C   0  0  0  0  0  0  0  0  0  0  0  0
  -27.6370    9.2000    6.9260 C   0  0  0  0  0  0  0  0  0  0  0  0
  -26.1620    8.8530    7.0620 C   0  0  0  0  0  0  0  0  0  0  0  0
  -25.9540    7.5710    7.8520 C   0  0  0  0  0  0  0  0  0  0  0  0
  -31.2080   11.2080    6.8630 C   0  0  0  0  0  0  0  0  0  0  0  0
  -32.2930    9.0290    7.1920 C   0  0  0  0  0  0  0  0  0  0  0  0
  -33.0710    6.9550    8.0030 C   0  0  0  0  0  0  0  0  0  0  0  0
  -33.4500    8.3300    7.7140 N   0  0  0  0  0  0  0  0  0  0  0  0
  -35.4390    3.3170    6.8630 N   0  0  0  0  0  0  0  0  0  0  0  0
  -27.9680   13.1850    5.2130 C   0  0  0  0  0  0  0  0  0  0  0  0
  -35.8390    2.4680    7.9010 N   0  0  0  0  0  0  0  0  0  0  0  0
  -28.8760   11.2620    6.4440 C   0  0  0  0  0  0  0  0  0  0  0  0
  -34.7780    5.8040    6.5960 C   0  0  0  0  0  0  0  0  0  0  0  0
  -35.2220    4.5760    7.3920 C   0  0  0  0  0  0  0  0  0  0  0  0
  -35.4870    4.5160    8.7560 C   0  0  0  0  0  0  0  0  0  0  0  0
  -36.2340    2.7010   10.3650 C   0  0  0  0  0  0  0  0  0  0  0  0
  -35.6790    1.2890   10.5500 C   0  0  0  0  0  0  0  0  0  0  0  0
  -28.9940   12.6600    5.8470 C   0  0  0  0  0  0  0  0  0  0  0  0
  -34.3120    1.3850   11.2250 C   0  0  0  0  0  0  0  0  0  0  0  0
  -33.8140    0.0050   11.6430 C   0  0  0  0  0  0  0  0  0  0  0  0
  -32.3610   -0.1490   11.1970 C   0  0  0  0  0  0  0  0  0  0  0  0
  -31.3530   -0.3320   12.1320 C   0  0  0  0  0  0  0  0  0  0  0  0
  -30.0310   -0.4720   11.7170 C   0  0  0  0  0  0  0  0  0  0  0  0
  -29.7210   -0.4240   10.3610 C   0  0  0  0  0  0  0  0  0  0  0  0
  -30.7330   -0.2340    9.4320 C   0  0  0  0  0  0  0  0  0  0  0  0
  -32.0400   -0.0980    9.8560 C   0  0  0  0  0  0  0  0  0  0  0  0
  -27.5250    0.3360   10.5670 C   0  0  0  0  0  0  0  0  0  0  0  0
  -26.4570    0.7510    9.5660 C   0  0  0  0  0  0  0  0  0  0  0  0
  -26.7130    2.2010    9.1610 C   0  0  0  0  0  0  0  0  0  0  0  0
  -26.2200    4.2400   10.2790 C   0  0  0  0  0  0  0  0  0  0  0  0
  -25.1510    5.3120   10.1250 C   0  0  0  0  0  0  0  0  0  0  0  0
  -26.4980    4.0300   11.7660 C   0  0  0  0  0  0  0  0  0  0  0  0
  -35.8680    3.2070    9.0550 N   0  0  0  0  0  0  0  0  0  0  0  0
  -25.6640    3.0190    9.7360 N   0  0  0  0  0  0  0  0  0  0  0  0
  -29.9450   10.6760    7.1290 O   0  0  0  0  0  0  0  0  0  0  0  0
  -33.4500   11.0900    7.7190 O   0  0  0  0  0  0  0  0  0  0  0  0
  -28.3940   -0.5600    9.9390 O   0  0  0  0  0  0  0  0  0  0  0  0
  -26.5210   -0.0890    8.4460 O   0  0  0  0  0  0  0  0  0  0  0  0
  3  1  2  0
  4  3  1  0
  6  4  1  0
  7  6  1  0
  8  7  1  0
  9  5  1  0
 10  5  1  0
 11  2  1  0
 12 11  1  0
 12 10  1  0
 14  1  1  0
 15 13  2  0
 16  4  2  0
 17  2  1  0
 18 13  1  0
 18 17  1  0
 19 18  2  0
 21 20  1  0
 22 14  2  0
 22 16  1  0
 23 21  1  0
 24 23  1  0
 25 24  1  0
 26 25  2  0
 27 26  1  0
 28 27  2  0
 29 28  1  0
 30 29  2  0
 30 25  1  0
 32 31  1  0
 33 32  1  0
 34 35  1  0
 36 34  1  0
 37 20  1  0
 37 19  1  0
 37 15  1  0
 38 34  1  0
 38 33  1  0
 39 16  1  0
 39  9  1  0
  5 40  1  0
 41 31  1  0
 41 28  1  0
 32 42  1  0
M  END
>  <_TriposChargeType>  (1) 
GASTEIGER

$$$$
