1BWB_146_B641
     RDKit          3D

 62 70  0  0  0  0  0  0  0  0999 V2000
   -8.8970   15.4380   27.9250 C   0  0  0  0  0  0  0  0  0  0  0  0
   -8.0910   15.7830   25.6500 C   0  0  0  0  0  0  0  0  0  0  0  0
   -8.9100   17.7480   26.9550 C   0  0  0  0  0  0  0  0  0  0  0  0
  -10.3160   18.2740   27.1730 C   0  0  0  0  0  0  0  0  0  0  0  0
  -10.7210   18.0430   28.6110 C   0  0  0  0  0  0  0  0  0  0  0  0
  -10.9430   16.5690   28.8450 C   0  0  0  0  0  0  0  0  0  0  0  0
   -9.6280   14.8870   30.1570 C   0  0  0  0  0  0  0  0  0  0  0  0
   -8.7820   16.1110   24.3400 C   0  0  0  0  0  0  0  0  0  0  0  0
   -7.9980   16.4740   23.2350 C   0  0  0  0  0  0  0  0  0  0  0  0
   -8.6100   16.7020   21.9890 C   0  0  0  0  0  0  0  0  0  0  0  0
  -10.0000   16.5850   21.8530 C   0  0  0  0  0  0  0  0  0  0  0  0
  -10.7950   16.2310   22.9570 C   0  0  0  0  0  0  0  0  0  0  0  0
  -10.1810   15.9950   24.2000 C   0  0  0  0  0  0  0  0  0  0  0  0
   -7.7900   17.0310   20.7830 C   0  0  0  0  0  0  0  0  0  0  0  0
   -5.6050   16.4800   19.7060 C   0  0  0  0  0  0  0  0  0  0  0  0
   -4.5530   16.6800   16.2850 C   0  0  0  0  0  0  0  0  0  0  0  0
   -3.3210   16.2000   15.7950 C   0  0  0  0  0  0  0  0  0  0  0  0
   -2.3690   15.5940   16.6480 C   0  0  0  0  0  0  0  0  0  0  0  0
   -2.6150   15.4430   18.0240 C   0  0  0  0  0  0  0  0  0  0  0  0
   -3.8320   15.9060   18.5590 C   0  0  0  0  0  0  0  0  0  0  0  0
   -4.8380   16.5450   17.6590 C   0  0  0  0  0  0  0  0  0  0  0  0
   -7.8190   18.3450   27.8900 C   0  0  0  0  0  0  0  0  0  0  0  0
   -6.4290   18.3700   27.2860 C   0  0  0  0  0  0  0  0  0  0  0  0
   -5.4570   17.4100   27.6650 C   0  0  0  0  0  0  0  0  0  0  0  0
   -4.1790   17.4220   27.0530 C   0  0  0  0  0  0  0  0  0  0  0  0
   -3.8680   18.3930   26.0670 C   0  0  0  0  0  0  0  0  0  0  0  0
   -4.8370   19.3530   25.6900 C   0  0  0  0  0  0  0  0  0  0  0  0
   -6.1150   19.3410   26.3030 C   0  0  0  0  0  0  0  0  0  0  0  0
  -11.9820   15.9170   27.9010 C   0  0  0  0  0  0  0  0  0  0  0  0
  -12.5400   14.6050   28.4030 C   0  0  0  0  0  0  0  0  0  0  0  0
  -13.4550   14.6090   29.4910 C   0  0  0  0  0  0  0  0  0  0  0  0
  -13.9100   13.3820   30.0180 C   0  0  0  0  0  0  0  0  0  0  0  0
  -13.4590   12.1710   29.4480 C   0  0  0  0  0  0  0  0  0  0  0  0
  -12.5630   12.1710   28.3570 C   0  0  0  0  0  0  0  0  0  0  0  0
  -12.0970   13.3860   27.8270 C   0  0  0  0  0  0  0  0  0  0  0  0
   -9.5890   15.6490   31.4550 C   0  0  0  0  0  0  0  0  0  0  0  0
  -10.2510   15.0880   32.5570 C   0  0  0  0  0  0  0  0  0  0  0  0
  -10.1970   15.7450   33.8070 C   0  0  0  0  0  0  0  0  0  0  0  0
   -9.4660   16.9450   33.9540 C   0  0  0  0  0  0  0  0  0  0  0  0
   -8.7960   17.5060   32.8470 C   0  0  0  0  0  0  0  0  0  0  0  0
   -8.8670   16.8620   31.5980 C   0  0  0  0  0  0  0  0  0  0  0  0
  -10.9470   15.1970   34.9790 C   0  0  0  0  0  0  0  0  0  0  0  0
  -11.6830   13.0880   36.0820 C   0  0  0  0  0  0  0  0  0  0  0  0
  -12.4000   12.5470   39.5660 C   0  0  0  0  0  0  0  0  0  0  0  0
  -12.3420   11.2950   40.2250 C   0  0  0  0  0  0  0  0  0  0  0  0
  -12.0210   10.1040   39.5210 C   0  0  0  0  0  0  0  0  0  0  0  0
  -11.7490   10.1260   38.1300 C   0  0  0  0  0  0  0  0  0  0  0  0
  -11.7910   11.3680   37.4350 C   0  0  0  0  0  0  0  0  0  0  0  0
  -12.1260   12.6160   38.1850 C   0  0  0  0  0  0  0  0  0  0  0  0
   -8.7350   16.2860   26.8750 N   0  0  0  0  0  0  0  0  0  0  0  0
   -9.7440   15.7000   28.9420 N   0  0  0  0  0  0  0  0  0  0  0  0
   -6.5330   16.5600   20.8430 N   0  0  0  0  0  0  0  0  0  0  0  0
   -5.9030   16.8730   18.4520 N   0  0  0  0  0  0  0  0  0  0  0  0
   -4.3870   15.9080   19.8120 N   0  0  0  0  0  0  0  0  0  0  0  0
  -11.1980   13.8720   34.9270 N   0  0  0  0  0  0  0  0  0  0  0  0
  -12.0460   13.6270   37.2720 N   0  0  0  0  0  0  0  0  0  0  0  0
  -11.5430   11.7570   36.1330 N   0  0  0  0  0  0  0  0  0  0  0  0
   -8.2560   14.3960   27.9540 O   0  0  0  0  0  0  0  0  0  0  0  0
  -10.2740   19.6510   26.8850 O   0  0  0  0  0  0  0  0  0  0  0  0
  -11.9360   18.6690   28.8880 O   0  0  0  0  0  0  0  0  0  0  0  0
   -8.2250   17.6320   19.8170 O   0  0  0  0  0  0  0  0  0  0  0  0
  -11.2810   15.8890   35.9240 O   0  0  0  0  0  0  0  0  0  0  0  0
  4  3  1  0
  5  4  1  0
  6  5  1  0
  8  2  1  0
  9  8  2  0
 10  9  1  0
 11 10  2  0
 12 11  1  0
 13 12  2  0
 13  8  1  0
 14 10  1  0
 17 16  2  0
 18 17  1  0
 19 18  2  0
 20 19  1  0
 21 20  2  0
 21 16  1  0
  3 22  1  0
 23 22  1  0
 24 23  2  0
 25 24  1  0
 26 25  2  0
 27 26  1  0
 28 23  1  0
 28 27  2  0
  6 29  1  0
 30 29  1  0
 31 30  2  0
 32 31  1  0
 33 32  2  0
 34 33  1  0
 35 34  2  0
 35 30  1  0
 36  7  1  0
 37 36  2  0
 38 37  1  0
 39 38  2  0
 40 39  1  0
 41 36  1  0
 41 40  2  0
 42 38  1  0
 45 44  2  0
 46 45  1  0
 47 46  2  0
 48 47  1  0
 49 48  2  0
 49 44  1  0
 50  2  1  0
 50  1  1  0
 50  3  1  0
 51  6  1  0
 51  7  1  0
 51  1  1  0
 52 15  1  0
 52 14  1  0
 53 15  1  0
 53 21  1  0
 54 15  2  0
 54 20  1  0
 55 43  1  0
 55 42  1  0
 56 43  1  0
 56 49  1  0
 57 48  1  0
 57 43  2  0
 58  1  2  0
  4 59  1  0
  5 60  1  0
 61 14  2  0
 62 42  2  0
M  END
>  <_TriposChargeType>  (1) 
GASTEIGER

$$$$
