6KE5_6UB_B1301
     RDKit          3D

 28 29  0  0  0  0  0  0  0  0999 V2000
   27.8190  158.9020   11.5770 C   0  0  0  0  0  0  0  0  0  0  0  0
   26.7950  160.0270   11.4470 C   0  0  0  0  0  0  0  0  0  0  0  0
   26.7610  160.7130   12.6710 O   0  0  0  0  0  0  0  0  0  0  0  0
   27.1500  162.0540   12.7290 C   0  0  0  0  0  0  0  0  0  0  0  0
   27.9780  162.4950   12.0060 O   0  0  0  0  0  0  0  0  0  0  0  0
   26.4820  162.9680   13.7590 C   0  0  0  0  0  0  0  0  0  0  0  0
   26.2190  162.5210   14.9910 C   0  0  0  0  0  0  0  0  0  0  0  0
   25.4000  163.3170   16.0000 N   0  0  0  0  0  0  0  0  0  0  0  0
   24.9780  164.6360   15.5170 C   0  0  0  0  0  0  0  0  0  0  0  0
   25.4800  165.1830   14.4110 C   0  0  0  0  0  0  0  0  0  0  0  0
   26.0280  164.3420   13.3200 C   0  0  0  0  0  0  0  0  0  0  0  0
   25.3300  164.4870   11.9270 C   0  0  0  0  0  0  0  0  0  0  0  0
   24.1210  163.9760   11.5530 C   0  0  0  0  0  0  0  0  0  0  0  0
   23.7030  164.2060   10.2640 C   0  0  0  0  0  0  0  0  0  0  0  0
   24.4740  164.9430    9.3850 C   0  0  0  0  0  0  0  0  0  0  0  0
   25.6840  165.4540    9.7810 C   0  0  0  0  0  0  0  0  0  0  0  0
   26.1030  165.2130   11.0550 C   0  0  0  0  0  0  0  0  0  0  0  0
   27.6430  165.8090   11.7330 Cl  0  0  0  0  0  0  0  0  0  0  0  0
   25.1050  166.6550   13.8860 C   0  0  0  0  0  0  0  0  0  0  0  0
   24.2540  166.8230   13.1330 O   0  0  0  0  0  0  0  0  0  0  0  0
   25.9040  167.7120   14.3450 O   0  0  0  0  0  0  0  0  0  0  0  0
   27.0130  167.3840   15.1380 C   0  0  0  0  0  0  0  0  0  0  0  0
   24.4400  165.5300   16.6520 C   0  0  0  0  0  0  0  0  0  0  0  0
   26.5580  161.2120   15.4020 C   0  0  0  0  0  0  0  0  0  0  0  0
   27.8400  161.4750   16.0340 O   0  0  0  0  0  0  0  0  0  0  0  0
   27.7660  162.2930   17.1730 C   0  0  0  0  0  0  0  0  0  0  0  0
   29.0830  163.1100   17.2630 C   0  0  0  0  0  0  0  0  0  0  0  0
   28.8240  164.2770   18.0830 N   0  0  0  0  0  0  0  0  0  0  0  0
  2  1  1  0
  3  2  1  0
  4  3  1  0
  5  4  2  0
  6  4  1  0
  7  6  2  0
  8  7  1  0
  9  8  1  0
 10  9  2  0
 11  6  1  0
 11 10  1  0
 11 12  1  0
 13 12  2  0
 14 13  1  0
 15 14  2  0
 16 15  1  0
 17 16  2  0
 17 12  1  0
 18 17  1  0
 19 10  1  0
 20 19  2  0
 21 19  1  0
 22 21  1  0
 23  9  1  0
 24  7  1  0
 25 24  1  0
 26 25  1  0
 27 26  1  0
 28 27  1  0
M  END
>  <_TriposChargeType>  (1) 
GASTEIGER

$$$$
