5KMF_6U9_A1301
     RDKit          3D

 30 31  0  0  0  0  0  0  0  0999 V2000
   26.0910  163.5460   16.4030 C   0  0  0  0  0  0  0  0  0  0  0  0
   25.3020  163.3790   15.1320 C   0  0  0  0  0  0  0  0  0  0  0  0
   23.0420  160.4340   14.2610 C   0  0  0  0  0  0  0  0  0  0  0  0
   19.0890  161.0800    7.8540 C   0  0  0  0  0  0  0  0  0  0  0  0
   20.3650  160.4940    7.9730 O   0  0  0  0  0  0  0  0  0  0  0  0
   21.3850  161.2460    8.6440 C   0  0  0  0  0  0  0  0  0  0  0  0
   21.2500  161.1990   10.1880 C   0  0  0  0  0  0  0  0  0  0  0  0
   22.5180  161.4390   10.8150 O   0  0  0  0  0  0  0  0  0  0  0  0
   22.3730  162.1070   12.0110 C   0  0  0  0  0  0  0  0  0  0  0  0
   21.2260  162.3170   12.4550 O   0  0  0  0  0  0  0  0  0  0  0  0
   23.5800  162.4560   12.9080 C   0  0  0  0  0  0  0  0  0  0  0  0
   23.6660  161.7130   14.1450 C   0  0  0  0  0  0  0  0  0  0  0  0
   24.7870  162.0080   15.0360 N   0  0  0  0  0  0  0  0  0  0  0  0
   25.2060  164.2750   14.0030 C   0  0  0  0  0  0  0  0  0  0  0  0
   24.2880  163.8310   12.7820 C   0  0  0  0  0  0  0  0  0  0  0  0
   25.1260  163.9260   11.3230 C   0  0  0  0  0  0  0  0  0  0  0  0
   25.3820  165.1240   10.7320 C   0  0  0  0  0  0  0  0  0  0  0  0
   26.1800  165.2150    9.5310 C   0  0  0  0  0  0  0  0  0  0  0  0
   26.6480  164.0290    8.9800 C   0  0  0  0  0  0  0  0  0  0  0  0
   26.3620  162.7990    9.6050 C   0  0  0  0  0  0  0  0  0  0  0  0
   25.6270  162.7840   10.7900 C   0  0  0  0  0  0  0  0  0  0  0  0
   26.5220  166.5050    8.8100 N   0  0  0  0  0  0  0  0  0  0  0  0
   25.7970  167.6910    9.2070 O   0  0  0  0  0  0  0  0  0  0  0  0
   27.3700  166.6370    7.9010 O   0  0  0  0  0  0  0  0  0  0  0  0
   25.5750  165.8490   14.0700 C   0  0  0  0  0  0  0  0  0  0  0  0
   25.1420  166.5150   13.1880 O   0  0  0  0  0  0  0  0  0  0  0  0
   26.1680  166.5670   15.1560 O   0  0  0  0  0  0  0  0  0  0  0  0
   26.5330  168.0060   15.1660 C   0  0  0  0  0  0  0  0  0  0  0  0
   25.8850  168.8430   16.3110 C   0  0  0  0  0  0  0  0  0  0  0  0
   28.0330  168.0840   15.4540 C   0  0  0  0  0  0  0  0  0  0  0  0
  2  1  1  0
  5  4  1  0
  6  5  1  0
  7  6  1  0
  8  7  1  0
  9  8  1  0
 10  9  2  0
 11  9  1  0
 12 11  2  0
 12  3  1  0
 13 12  1  0
 13  2  1  0
 14  2  2  0
 15 11  1  0
 15 14  1  0
 15 16  1  0
 17 16  2  0
 18 17  1  0
 19 18  2  0
 20 19  1  0
 21 20  2  0
 21 16  1  0
 22 18  1  0
 23 22  2  0
 24 22  1  0
 25 14  1  0
 26 25  2  0
 27 25  1  0
 28 27  1  0
 28 29  1  0
 30 28  1  0
M  CHG  2  22   1  24  -1
M  END
>  <_TriposChargeType>  (1) 
GASTEIGER

$$$$
