@<TRIPOS>MOLECULE
2Q1L_882_A876
 42 45 0 0 0
SMALL
GASTEIGER

@<TRIPOS>ATOM
      1 N          18.7120    8.9940   13.3180 N.ar    1  UNL1       -0.3289
      2 C          17.5220    8.6890   13.8950 C.ar    1  UNL1        0.0371
      3 C          17.6690    8.9430   15.2380 C.ar    1  UNL1        0.0132
      4 C          18.9760    8.8920   11.8540 C.3     1  UNL1        0.0854
      5 C          16.2630    8.2100   13.2240 C.3     1  UNL1        0.0464
      6 C          16.4140    6.7810   12.7380 C.3     1  UNL1        0.0392
      7 C          15.0400    4.7280   12.5490 C.3     1  UNL1        0.0663
      8 C          19.9920    7.7960   11.5440 C.3     1  UNL1        0.0245
      9 C          15.0410    9.3180   17.9630 C.ar    1  UNL1        0.0296
     10 C          23.8320   10.7630   14.4670 C.ar    1  UNL1        0.0166
     11 C          25.1360   11.1730   14.1980 C.ar    1  UNL1        0.0013
     12 C          16.2730    7.3430   16.4550 C.ar    1  UNL1        0.0023
     13 C          19.7670    9.2270   19.1600 C.ar    1  UNL1        0.0296
     14 C          15.3070    6.9850   17.3870 C.ar    1  UNL1        0.0296
     15 C          22.9890   12.6820   13.2900 C.ar    1  UNL1        0.0166
     16 C          20.1150   10.5580   19.3830 C.ar    1  UNL1        0.1401
     17 O          14.0380    1.9100   16.1240 O.co2   1  UNL1       -0.2456
     18 C          15.0580    2.4290   15.6170 C.2     1  UNL1        0.3674
     19 O          16.1120    2.6170   16.2620 O.co2   1  UNL1       -0.2456
     20 C          15.0170    2.8350   14.1600 C.3     1  UNL1        0.1469
     21 C          14.7890    4.3330   13.9980 C.3     1  UNL1        0.1658
     22 O          13.4550    4.7110   14.2940 O.3     1  UNL1       -0.2225
     23 C          15.0300    6.2430   12.4000 C.3     1  UNL1        0.1549
     24 O          14.7080    6.6090   11.0710 O.3     1  UNL1       -0.2230
     25 C          16.6190    8.6830   16.2650 C.ar    1  UNL1        0.0013
     26 C          14.6930    7.9760   18.1450 C.ar    1  UNL1        0.1401
     27 F          13.7600    7.6320   19.0490 F       1  UNL1       -0.2042
     28 C          16.0080    9.6790   17.0210 C.ar    1  UNL1        0.0023
     29 C          19.4260   10.2530   11.3560 C.3     1  UNL1        0.0245
     30 C          19.5920    9.4250   14.2630 C.ar    1  UNL1        0.1157
     31 C          18.9450    9.3310   15.4810 C.ar    1  UNL1        0.0214
     32 C          19.3910    9.7190   16.8390 C.ar    1  UNL1        0.0017
     33 C          19.3890    8.8100   17.8900 C.ar    1  UNL1        0.0024
     34 F          20.4790   10.9400   20.6140 F       1  UNL1       -0.2042
     35 C          20.0920   11.4760   18.3390 C.ar    1  UNL1        0.0296
     36 C          19.7140   11.0560   17.0660 C.ar    1  UNL1        0.0024
     37 C          21.0160    9.8330   14.1270 C.2     1  UNL1        0.2849
     38 O          21.7800    8.9240   13.8200 O.2     1  UNL1       -0.2664
     39 N          21.4050   11.1120   14.2520 N.am    1  UNL1       -0.1742
     40 C          22.7420   11.5100   14.0110 C.ar    1  UNL1        0.0737
     41 C          24.2930   13.0970   13.0310 C.ar    1  UNL1        0.0013
     42 C          25.3730   12.3430   13.4830 C.ar    1  UNL1        0.0001
@<TRIPOS>BOND
     1     2     1   ar
     2     3     2   ar
     3     4     1    1
     4     5     2    1
     5     6     5    1
     6     4     8    1
     7    11    10   ar
     8    14    12   ar
     9    16    13   ar
    10    18    17   ar
    11    19    18   ar
    12    20    18    1
    13    21    20    1
    14    21     7    1
    15    21    22    1
    16    23     7    1
    17    23     6    1
    18    23    24    1
    19    25    12   ar
    20    25     3    1
    21    26    14   ar
    22    26     9   ar
    23    27    26    1
    24    28     9   ar
    25    28    25   ar
    26    29     4    1
    27    30     1   ar
    28    31    30   ar
    29    31     3   ar
    30    32    31    1
    31    33    32   ar
    32    33    13   ar
    33    34    16    1
    34    35    16   ar
    35    36    32   ar
    36    36    35   ar
    37    37    30    1
    38    38    37    2
    39    39    37   am
    40    40    39    1
    41    40    10   ar
    42    40    15   ar
    43    41    15   ar
    44    42    41   ar
    45    42    11   ar
