@<TRIPOS>MOLECULE
3BGL_RID_A2
 41 44 0 0 0
SMALL
GASTEIGER

@<TRIPOS>ATOM
      1 N          17.2290    8.7930   13.9360 N.ar    1  UNL1       -0.3293
      2 N          20.7050   11.7800   15.1120 N.3     1  UNL1       -0.1503
      3 C          17.2350    8.8990   15.2580 C.ar    1  UNL1        0.0609
      4 C          18.6180    9.2830   11.9420 C.3     1  UNL1        0.0397
      5 C          16.0720    8.2570   13.2090 C.3     1  UNL1        0.1084
      6 C          16.2670    6.8030   12.8530 C.3     1  UNL1        0.0574
      7 C          15.0030    4.6930   12.5390 C.3     1  UNL1        0.0664
      8 C          19.8740    8.4920   11.5570 C.3     1  UNL1        0.0063
      9 C          14.3920    8.8430   17.7300 C.ar    1  UNL1        0.0297
     10 C          19.7860   12.7510   14.5170 C.3     1  UNL1        0.1279
     11 C          19.5970   13.9030   15.5010 C.3     1  UNL1        0.1613
     12 C          16.3890    7.1790   16.7590 C.ar    1  UNL1        0.0037
     13 C          19.9300    9.0850   19.1670 C.ar    1  UNL1        0.0000
     14 C          15.5140    6.7000   17.7230 C.ar    1  UNL1        0.0297
     15 C          21.9780   12.2860   15.6390 C.3     1  UNL1        0.1279
     16 C          19.4670   10.2440   19.7720 C.ar    1  UNL1        0.0000
     17 O          21.6370    9.5650   15.2240 O.2     1  UNL1       -0.1527
     18 S          20.7230   10.3960   14.4840 S.O2    1  UNL1        0.0645
     19 O          21.1850   10.5440   13.1350 O.2     1  UNL1       -0.1527
     20 C          21.6600   13.4570   16.5640 C.3     1  UNL1        0.1613
     21 O          20.8680   14.4300   15.8820 O.3     1  UNL1       -0.3507
     22 C          19.2030    9.7100   14.5050 C.ar    1  UNL1        0.1351
     23 C          18.5160    9.4680   15.6690 C.ar    1  UNL1        0.0355
     24 C          18.8730    9.7310   17.0920 C.ar    1  UNL1        0.0027
     25 C          19.6280    8.8270   17.8310 C.ar    1  UNL1        0.0001
     26 C          18.6990   11.1470   19.0400 C.ar    1  UNL1        0.0000
     27 C          18.3940   10.8850   17.7030 C.ar    1  UNL1        0.0001
     28 C          18.3910    9.2820   13.4190 C.ar    1  UNL1        0.0553
     29 C          18.6110   10.6970   11.4030 C.3     1  UNL1        0.0063
     30 C          16.2670    8.4850   16.2910 C.ar    1  UNL1        0.0160
     31 C          14.5200    7.5390   18.2030 C.ar    1  UNL1        0.1401
     32 F          13.6830    7.0720   19.1320 F       1  UNL1       -0.2042
     33 C          15.2660    9.3230   16.7600 C.ar    1  UNL1        0.0037
     34 C          14.9410    6.2030   12.4060 C.3     1  UNL1        0.1565
     35 O          14.7080    6.5530   11.0570 O.3     1  UNL1       -0.2230
     36 C          14.7580    4.2640   13.9780 C.3     1  UNL1        0.1658
     37 O          13.4500    4.6490   14.3600 O.3     1  UNL1       -0.2225
     38 C          14.9120    2.7520   14.1040 C.3     1  UNL1        0.1469
     39 C          15.0290    2.3730   15.5650 C.2     1  UNL1        0.3674
     40 O          16.0590    2.6060   16.1880 O.co2   1  UNL1       -0.2456
     41 O          14.0030    1.7840   16.1750 O.co2   1  UNL1       -0.2456
@<TRIPOS>BOND
     1     3     1   ar
     2     5     1    1
     3     6     5    1
     4     4     8    1
     5    10     2    1
     6    11    10    1
     7    14    12   ar
     8    15     2    1
     9    16    13   ar
    10    18    17    2
    11    18     2    1
    12    19    18    2
    13    20    15    1
    14    21    11    1
    15    21    20    1
    16    22    18    1
    17    23    22   ar
    18    23     3   ar
    19    24    23    1
    20    25    24   ar
    21    25    13   ar
    22    26    16   ar
    23    27    24   ar
    24    27    26   ar
    25    28    22   ar
    26    28     4    1
    27    28     1   ar
    28    29     4    1
    29    30     3    1
    30    30    12   ar
    31    31    14   ar
    32    31     9   ar
    33    32    31    1
    34    33    30   ar
    35    33     9   ar
    36    34     7    1
    37    34     6    1
    38    34    35    1
    39    36     7    1
    40    36    37    1
    41    38    36    1
    42    39    38    1
    43    40    39   ar
    44    41    39   ar
