@<TRIPOS>MOLECULE
3CCT_3HI_D3
 42 45 0 0 0
SMALL
GASTEIGER

@<TRIPOS>ATOM
      1 N          17.4710    8.7140   13.9800 N.ar    1  UNL1       -0.3304
      2 C          17.5190    8.8750   15.3010 C.ar    1  UNL1        0.0597
      3 C          18.8700    8.9570   11.9450 C.3     1  UNL1        0.0385
      4 C          16.2820    8.2600   13.2690 C.3     1  UNL1        0.1083
      5 C          16.4170    6.7750   12.9970 C.3     1  UNL1        0.0574
      6 C          15.1070    4.7120   12.6760 C.3     1  UNL1        0.0664
      7 C          19.9850    7.9650   11.6150 C.3     1  UNL1        0.0062
      8 C          14.7270    9.2560   17.8470 C.ar    1  UNL1        0.0297
      9 C          23.8460   10.8940   14.3100 C.ar    1  UNL1        0.0199
     10 C          25.1070   11.4000   13.9760 C.ar    1  UNL1        0.0015
     11 C          16.1970    7.2620   16.6010 C.ar    1  UNL1        0.0037
     12 C          19.7560    9.1980   19.3470 C.ar    1  UNL1        0.0000
     13 C          15.2140    6.9090   17.5160 C.ar    1  UNL1        0.0297
     14 C          22.8470   12.8860   13.4080 C.ar    1  UNL1        0.2109
     15 C          20.2720   10.4790   19.5670 C.ar    1  UNL1        0.0000
     16 O          16.1750    2.5880   16.3130 O.co2   1  UNL1       -0.2456
     17 C          15.1300    2.3240   15.6550 C.2     1  UNL1        0.3674
     18 O          14.1390    1.7260   16.1550 O.co2   1  UNL1       -0.2456
     19 C          15.0480    2.7650   14.2160 C.3     1  UNL1        0.1469
     20 C          14.8370    4.2690   14.1080 C.3     1  UNL1        0.1658
     21 O          13.4990    4.6270   14.4400 O.3     1  UNL1       -0.2225
     22 C          15.0750    6.2380   12.5530 C.3     1  UNL1        0.1565
     23 O          14.8650    6.6580   11.2180 O.3     1  UNL1       -0.2230
     24 C          16.4650    8.6070   16.3160 C.ar    1  UNL1        0.0159
     25 C          14.4820    7.9140   18.1370 C.ar    1  UNL1        0.1401
     26 F          13.5240    7.5840   19.0140 F       1  UNL1       -0.2042
     27 C          15.7170    9.6030   16.9280 C.ar    1  UNL1        0.0037
     28 C          18.6530    9.0490   13.4140 C.ar    1  UNL1        0.0411
     29 C          19.1030   10.3400   11.3770 C.3     1  UNL1        0.0062
     30 C          19.5490    9.4750   14.4140 C.ar    1  UNL1        0.0684
     31 C          18.8830    9.3420   15.6310 C.ar    1  UNL1        0.0213
     32 C          19.3780    9.6990   17.0050 C.ar    1  UNL1        0.0016
     33 C          19.3120    8.8080   18.0750 C.ar    1  UNL1        0.0000
     34 C          20.3300   11.3810   18.5030 C.ar    1  UNL1        0.0000
     35 C          19.8770   10.9950   17.2370 C.ar    1  UNL1        0.0000
     36 C          20.9760    9.8840   14.1760 C.2     1  UNL1        0.2702
     37 O          21.7480    8.9650   13.9160 O.2     1  UNL1       -0.2680
     38 N          21.3940   11.1560   14.3440 N.am    1  UNL1       -0.1722
     39 C          22.6930   11.6350   14.0190 C.ar    1  UNL1        0.1125
     40 O          21.7860   13.6290   13.1270 O.3     1  UNL1       -0.2852
     41 C          24.1010   13.3950   13.0700 C.ar    1  UNL1        0.0434
     42 C          25.2430   12.6460   13.3560 C.ar    1  UNL1        0.0034
@<TRIPOS>BOND
     1     2     1   ar
     2     4     1    1
     3     5     4    1
     4     3     7    1
     5    10     9   ar
     6    13    11   ar
     7    15    12   ar
     8    17    16   ar
     9    18    17   ar
    10    19    17    1
    11    20    19    1
    12    20     6    1
    13    20    21    1
    14    22     6    1
    15    22     5    1
    16    22    23    1
    17    24    11   ar
    18    24     2    1
    19    25    13   ar
    20    25     8   ar
    21    26    25    1
    22    27     8   ar
    23    27    24   ar
    24    28     3    1
    25    28     1   ar
    26    29     3    1
    27    30    28   ar
    28    31    30   ar
    29    31     2   ar
    30    32    31    1
    31    33    32   ar
    32    33    12   ar
    33    34    15   ar
    34    35    32   ar
    35    35    34   ar
    36    36    30    1
    37    37    36    2
    38    38    36   am
    39    39    38    1
    40    39     9   ar
    41    39    14   ar
    42    40    14    1
    43    41    14   ar
    44    42    41   ar
    45    42    10   ar
