@<TRIPOS>MOLECULE
3CCW_4HI_C4
 36 38 0 0 0
SMALL
GASTEIGER

@<TRIPOS>ATOM
      1 N          17.7310    8.8670   13.7140 N.ar    1  UNL1       -0.3147
      2 N          19.0910    9.3770   15.3710 N.ar    1  UNL1       -0.2225
      3 C          23.2360   10.6860   15.1860 C.3     1  UNL1        0.1418
      4 C          17.8310    9.0670   15.0440 C.ar    1  UNL1        0.1437
      5 C          19.4150    8.9720   11.7640 C.3     1  UNL1        0.0401
      6 C          16.4800    8.5050   13.0110 C.3     1  UNL1        0.1098
      7 C          16.2800    6.9990   13.1660 C.3     1  UNL1        0.0575
      8 C          15.0960    4.8600   12.6290 C.3     1  UNL1        0.0664
      9 C          18.8680   10.1770   11.0090 C.3     1  UNL1        0.0063
     10 C          14.7370    9.7550   17.1030 C.ar    1  UNL1        0.0297
     11 C          25.1820   11.5610   13.8800 C.ar    1  UNL1       -0.0026
     12 C          25.7560   12.4030   12.9300 C.ar    1  UNL1       -0.0003
     13 C          16.9270    8.0370   17.0890 C.ar    1  UNL1        0.0053
     14 C          15.9790    7.9440   18.0930 C.ar    1  UNL1        0.0297
     15 C          23.0140   12.5210   13.4440 C.ar    1  UNL1       -0.0026
     16 O          21.9250    8.9060   13.3930 O.2     1  UNL1       -0.2667
     17 C          21.2500    9.6460   14.0930 C.2     1  UNL1        0.2840
     18 N          21.8120   10.4860   14.9580 N.am    1  UNL1       -0.1955
     19 C          23.8150   11.6160   14.1430 C.ar    1  UNL1       -0.0006
     20 C          23.5870   13.3660   12.4940 C.ar    1  UNL1       -0.0003
     21 C          24.9570   13.3090   12.2350 C.ar    1  UNL1       -0.0000
     22 C          19.7980    9.3770   14.2450 C.ar    1  UNL1        0.1493
     23 C          18.9630    9.0510   13.1840 C.ar    1  UNL1        0.0601
     24 C          19.0560    7.6520   11.0930 C.3     1  UNL1        0.0063
     25 C          16.7820    8.9840   16.0870 C.ar    1  UNL1        0.0343
     26 C          14.8890    8.7990   18.1000 C.ar    1  UNL1        0.1401
     27 F          13.9770    8.6820   19.0790 F       1  UNL1       -0.2042
     28 C          15.6940    9.8560   16.0970 C.ar    1  UNL1        0.0053
     29 C          15.0450    6.3800   12.4980 C.3     1  UNL1        0.1565
     30 O          14.9900    6.6480   11.1080 O.3     1  UNL1       -0.2230
     31 C          14.8230    4.3730   14.0410 C.3     1  UNL1        0.1658
     32 O          13.5010    4.7150   14.3970 O.3     1  UNL1       -0.2225
     33 C          14.9870    2.8610   14.1120 C.3     1  UNL1        0.1469
     34 C          15.1210    2.4210   15.5480 C.2     1  UNL1        0.3674
     35 O          14.1330    1.9110   16.1210 O.co2   1  UNL1       -0.2456
     36 O          16.2220    2.5610   16.1110 O.co2   1  UNL1       -0.2456
@<TRIPOS>BOND
     1     4     2   ar
     2     4     1   ar
     3     6     1    1
     4     7     6    1
     5     5     9    1
     6    12    11   ar
     7    14    13   ar
     8    17    16    2
     9    18    17   am
    10    18     3    1
    11    19     3    1
    12    19    15   ar
    13    19    11   ar
    14    20    15   ar
    15    21    20   ar
    16    21    12   ar
    17    22    17    1
    18    22     2   ar
    19    23    22   ar
    20    23     5    1
    21    23     1   ar
    22    24     5    1
    23    25     4    1
    24    25    13   ar
    25    26    14   ar
    26    26    10   ar
    27    27    26    1
    28    28    10   ar
    29    28    25   ar
    30    29     8    1
    31    29     7    1
    32    29    30    1
    33    31     8    1
    34    31    32    1
    35    33    31    1
    36    34    33    1
    37    35    34   ar
    38    36    34   ar
