@<TRIPOS>MOLECULE
3CCZ_5HI_B876
 38 40 0 0 0
SMALL
GASTEIGER

@<TRIPOS>ATOM
      1 N          17.6440    8.9920   13.9460 N.ar    1  UNL1       -0.3147
      2 N          19.0250    9.4120   15.5930 N.ar    1  UNL1       -0.2225
      3 C          17.7480    9.1430   15.2790 C.ar    1  UNL1        0.1437
      4 C          19.1050    9.0620   11.9130 C.3     1  UNL1        0.0401
      5 C          16.3820    8.6730   13.2520 C.3     1  UNL1        0.1098
      6 C          16.0720    7.1950   13.5050 C.3     1  UNL1        0.0575
      7 C          15.2010    5.0010   12.6500 C.3     1  UNL1        0.0664
      8 C          20.4850    9.5220   11.4590 C.3     1  UNL1        0.0063
      9 C          14.7680    9.9570   17.4630 C.ar    1  UNL1        0.0297
     10 C          25.0210   11.7010   13.6980 C.ar    1  UNL1       -0.0025
     11 C          25.6010   12.4390   12.6700 C.ar    1  UNL1       -0.0003
     12 C          16.5730    7.8770   17.0670 C.ar    1  UNL1        0.0053
     13 C          15.5750    7.7550   18.0290 C.ar    1  UNL1        0.0297
     14 C          22.9250   12.8420   13.3570 C.ar    1  UNL1       -0.0025
     15 O          21.9510    8.8910   13.8820 O.2     1  UNL1       -0.2667
     16 C          21.2150    9.6950   14.4310 C.2     1  UNL1        0.2840
     17 N          21.6950   10.7670   15.0710 N.am    1  UNL1       -0.1949
     18 CA         23.1260   11.0810   15.1580 C.3     1  UNL1        0.1507
     19 C          23.2860   11.8550   16.4680 C.3     1  UNL1        0.2081
     20 O          22.5300   13.0570   16.4530 O.3     1  UNL1       -0.2181
     21 C          23.6830   11.8930   14.0440 C.ar    1  UNL1        0.0000
     22 C          23.5080   13.5810   12.3270 C.ar    1  UNL1       -0.0003
     23 C          24.8410   13.3800   11.9820 C.ar    1  UNL1       -0.0000
     24 CA         19.7390    9.4420   14.4580 C.ar    1  UNL1        0.1493
     25 C          18.8660    9.1580   13.3890 C.ar    1  UNL1        0.0601
     26 C          18.8500    7.6300   11.4310 C.3     1  UNL1        0.0063
     27 C          16.6670    9.0360   16.2990 C.ar    1  UNL1        0.0343
     28 C          14.6730    8.7970   18.2300 C.ar    1  UNL1        0.1401
     29 F          13.7110    8.6770   19.1610 F       1  UNL1       -0.2042
     30 C          15.7670   10.0780   16.4990 C.ar    1  UNL1        0.0053
     31 C          15.0860    6.5240   12.5410 C.3     1  UNL1        0.1565
     32 O          15.3340    6.8760   11.1890 O.3     1  UNL1       -0.2230
     33 C          14.9320    4.4790   14.0610 C.3     1  UNL1        0.1658
     34 O          13.6400    4.8850   14.4760 O.3     1  UNL1       -0.2225
     35 C          15.0200    2.9560   14.0850 C.3     1  UNL1        0.1469
     36 C          15.1510    2.4560   15.5070 C.2     1  UNL1        0.3674
     37 O          14.2080    1.8000   15.9950 O.co2   1  UNL1       -0.2456
     38 O          16.1940    2.7090   16.1480 O.co2   1  UNL1       -0.2456
@<TRIPOS>BOND
     1     3     2   ar
     2     3     1   ar
     3     5     1    1
     4     6     5    1
     5     4     8    1
     6    11    10   ar
     7    13    12   ar
     8    16    15    2
     9    17    16   am
    10    18    17    1
    11    18    19    1
    12    20    19    1
    13    21    18    1
    14    21    14   ar
    15    21    10   ar
    16    22    14   ar
    17    23    22   ar
    18    23    11   ar
    19    24    16    1
    20    24     2   ar
    21    25    24   ar
    22    25     4    1
    23    25     1   ar
    24    26     4    1
    25    27     3    1
    26    27    12   ar
    27    28    13   ar
    28    28     9   ar
    29    29    28    1
    30    30     9   ar
    31    30    27   ar
    32    31     7    1
    33    31     6    1
    34    31    32    1
    35    33     7    1
    36    33    34    1
    37    35    33    1
    38    36    35    1
    39    37    36   ar
    40    38    36   ar
