@<TRIPOS>MOLECULE
4FPT_0VZ_A303
 15 15 0 0 0
SMALL
GASTEIGER

@<TRIPOS>ATOM
      1 C          -4.4380    2.9080   15.3170 C.2     1  UNL1        0.1971
      2 C          -2.5140    5.6740   13.9060 C.2     1  UNL1        0.3379
      3 C          -1.8890    7.8900   13.5600 C.3     1  UNL1        0.2086
      4 C          -1.5980    8.4880   14.9270 C.3     1  UNL1        0.0513
      5 S          -5.9340    3.7700   14.9960 S.3     1  UNL1       -0.0747
      6 N          -4.2270    1.7920   15.9570 N.2     1  UNL1       -0.0914
      7 N          -3.3410    3.5840   14.8100 N.pl3   1  UNL1       -0.2032
      8 C          -3.7000    4.6890   13.9200 C.3     1  UNL1        0.2038
      9 C          -5.0150    5.2370   14.4410 C.3     1  UNL1        0.0980
     10 S          -5.4660    0.9250   16.5940 S.O2    1  UNL1        0.1728
     11 N          -5.2330   -0.5260   16.0350 N.3     1  UNL1        0.0585
     12 O          -6.7500    1.3970   16.1390 O.2     1  UNL1       -0.1316
     13 O          -5.2450    0.9920   18.0220 O.2     1  UNL1       -0.1316
     14 O          -1.3670    5.3650   14.1100 O.2     1  UNL1       -0.2482
     15 O          -2.9340    6.8960   13.6300 O.3     1  UNL1       -0.4473
@<TRIPOS>BOND
     1     4     3    1
     2     5     1    1
     3     6     1    2
     4     7     1    1
     5     8     7    1
     6     8     2    1
     7     9     5    1
     8     9     8    1
     9    10     6    1
    10    10    11    1
    11    12    10    2
    12    13    10    2
    13    14     2    2
    14    15     3    1
    15    15     2    1
