@<TRIPOS>MOLECULE
4YX4_FB2_A303
 10 10 0 0 0
SMALL
GASTEIGER

@<TRIPOS>ATOM
      1 C          -4.2570    4.5580   14.3360 C.ar    1  UNL1        0.0001
      2 C          -5.5860    4.5040   14.6960 C.ar    1  UNL1        0.0014
      3 C          -6.0850    3.4150   15.3920 C.ar    1  UNL1        0.0200
      4 C          -5.2280    2.3790   15.7290 C.ar    1  UNL1        0.1250
      5 C          -3.8910    2.4180   15.3620 C.ar    1  UNL1        0.0200
      6 C          -3.4140    3.5170   14.6660 C.ar    1  UNL1        0.0014
      7 S          -5.8360    1.0190   16.6840 S.O2    1  UNL1        0.0935
      8 O          -7.2610    0.9990   16.5280 O.2     1  UNL1       -0.1503
      9 O          -5.2900    1.1600   18.0010 O.2     1  UNL1       -0.1503
     10 N          -5.2240   -0.2880   16.0690 N.3     1  UNL1        0.0392
@<TRIPOS>BOND
     1     2     1   ar
     2     3     2   ar
     3     4     3   ar
     4     5     4   ar
     5     6     5   ar
     6     6     1   ar
     7     7     4    1
     8     8     7    2
     9     9     7    2
    10     7    10    1
