@<TRIPOS>MOLECULE
5DOH_5DU_B304
 27 29 0 0 0
SMALL
GASTEIGER

@<TRIPOS>ATOM
      1 F          -5.7320    3.4460   11.6020 F       1  UNL1       -0.2022
      2 C          -5.7660    3.3580   13.0170 C.ar    1  UNL1        0.1641
      3 C          -6.1780    4.5570   13.6090 C.ar    1  UNL1        0.0839
      4 S          -6.6100    6.0090   12.7110 S.3     1  UNL1       -0.1064
      5 C          -5.1200    6.3780   11.7670 C.3     1  UNL1        0.0978
      6 C          -5.4710    7.0940   10.4660 C.3     1  UNL1        0.1940
      7 O          -6.7350    6.6900   10.0140 O.3     1  UNL1       -0.2194
      8 C          -6.2190    4.5280   15.0110 C.ar    1  UNL1        0.1766
      9 F          -6.6170    5.6130   15.9790 F       1  UNL1       -0.2012
     10 C          -6.0470    3.4250   15.7400 C.ar    1  UNL1        0.1878
     11 F          -6.2850    3.4340   17.0740 F       1  UNL1       -0.2003
     12 C          -5.4000    2.2110   13.6850 C.ar    1  UNL1        0.1145
     13 C          -5.5120    2.2570   15.1410 C.ar    1  UNL1        0.1715
     14 S          -5.4020    0.9940   16.2470 S.O2    1  UNL1        0.0971
     15 O          -4.5930    1.3890   17.3310 O.2     1  UNL1       -0.1502
     16 N          -5.1330   -0.4920   15.8800 N.3     1  UNL1        0.0393
     17 O          -6.8920    0.7060   16.7290 O.2     1  UNL1       -0.1502
     18 N          -5.0280    1.0560   12.8870 N.pl3   1  UNL1       -0.2312
     19 C          -4.3040    1.0690   11.6340 C.3     1  UNL1        0.1148
     20 C          -3.8020   -0.3020   11.4320 C.ar    1  UNL1       -0.0066
     21 C          -4.4460   -1.4800   11.5950 C.ar    1  UNL1       -0.0029
     22 C          -3.7930   -2.7500   11.4300 C.ar    1  UNL1       -0.0003
     23 C          -2.4380   -2.7460   11.2240 C.ar    1  UNL1       -0.0003
     24 C          -1.7720   -1.5350   11.0840 C.ar    1  UNL1       -0.0045
     25 C          -2.4740   -0.3310   11.2020 C.ar    1  UNL1       -0.0245
     26 C          -1.9160    1.0150   11.1310 C.3     1  UNL1        0.0282
     27 C          -2.9990    1.8910   11.7370 C.3     1  UNL1        0.0307
@<TRIPOS>BOND
     1     2     1    1
     2     3     2   ar
     3     4     3    1
     4     5     4    1
     5     6     5    1
     6     7     6    1
     7     8     3   ar
     8     9     8    1
     9    10     8   ar
    10    11    10    1
    11    12     2   ar
    12    13    10   ar
    13    13    12   ar
    14    14    13    1
    15    15    14    2
    16    14    16    1
    17    17    14    2
    18    18    12    1
    19    19    18    1
    20    20    19    1
    21    21    20   ar
    22    22    21   ar
    23    23    22   ar
    24    24    23   ar
    25    25    24   ar
    26    25    20   ar
    27    26    25    1
    28    27    26    1
    29    27    19    1
