@<TRIPOS>MOLECULE
5NY6_9EB_A302
 23 24 0 0 0
SMALL
GASTEIGER

@<TRIPOS>ATOM
      1 C          -5.5870    2.3590   15.7860 C.ar    1  UNL1        0.1357
      2 C          -4.9580    2.2490   14.5140 C.ar    1  UNL1        0.0254
      3 C          -4.7720    3.3570   13.6770 C.ar    1  UNL1        0.0564
      4 C          -5.1670    4.6090   14.0980 C.ar    1  UNL1        0.0055
      5 C          -5.7630    4.7600   15.3430 C.ar    1  UNL1        0.0129
      6 C          -5.9640    3.6600   16.1720 C.ar    1  UNL1        0.0763
      7 C          -2.3310    2.3710   10.9230 C.3     1  UNL1        0.1209
      8 C          -1.3510    3.4820   10.6320 C.ar    1  UNL1        0.0364
      9 C          -0.4310    3.8940   11.5790 C.ar    1  UNL1        0.1933
     10 C           0.4970    4.9320   11.3140 C.ar    1  UNL1        0.0418
     11 C          -1.3290    4.1370    9.3830 C.ar    1  UNL1        0.0006
     12 C           0.4960    5.5740   10.0700 C.ar    1  UNL1        0.0033
     13 C          -0.4250    5.1630    9.1030 C.ar    1  UNL1       -0.0001
     14 O          -5.2830    1.1420   18.0170 O.2     1  UNL1       -0.1503
     15 O          -7.3590    0.9070   16.7320 O.2     1  UNL1       -0.1503
     16 C          -1.5950    1.0260   10.8120 C.3     1  UNL1        0.0284
     17 CL         -6.7120    3.8920   17.7210 Cl      1  UNL1       -0.0809
     18 S          -5.9170    0.9260   16.7490 S.O2    1  UNL1        0.0943
     19 N          -5.3470   -0.3270   15.9860 N.3     1  UNL1        0.0392
     20 C          -4.1380    3.2160   12.3270 C.2     1  UNL1        0.2651
     21 O          -4.6500    3.7720   11.3110 O.2     1  UNL1       -0.2684
     22 N          -3.0150    2.5020   12.2150 N.am    1  UNL1       -0.1988
     23 O          -0.4080    3.2590   12.8050 O.3     1  UNL1       -0.2869
@<TRIPOS>BOND
     1     2     1   ar
     2     3     2   ar
     3     4     3   ar
     4     5     4   ar
     5     6     5   ar
     6     6     1   ar
     7     8     7    1
     8     9     8   ar
     9    10     9   ar
    10    11     8   ar
    11    12    10   ar
    12    13    11   ar
    13    13    12   ar
    14     7    16    1
    15    17     6    1
    16    18     1    1
    17    18    15    2
    18    18    14    2
    19    18    19    1
    20    20     3    1
    21    21    20    2
    22    22    20   am
    23    22     7    1
    24    23     9    1
