@<TRIPOS>MOLECULE
5OGP_9UK_A302
 29 45 0 0 0
SMALL
GASTEIGER

@<TRIPOS>ATOM
      1  B7        -4.5090    7.1350   15.1260 B     302  9UK302      0.0000
      2 CO         -3.9720    5.0850   12.4930 Co.oh 302  9UK302      0.0000
      3  B8        -5.7610    7.5550   13.9120 B     302  9UK302      0.0000
      4  B4        -3.1950    8.2700   12.8490 B     302  9UK302      0.0000
      5  B9        -4.9490    8.2740   12.5070 B     302  9UK302      0.0000
      6  B5        -2.9360    7.5680   14.4610 B     302  9UK302      0.0000
      7  B12       -4.5130    4.4760   10.6030 B     302  9UK302      0.0000
      8  B11       -2.1510    2.8510   10.8800 B     302  9UK302      0.0000
      9  B6        -4.3500    8.6090   14.1660 B     302  9UK302      0.0000
     10  C2        -5.0030    6.0990   13.9230 C.3   302  9UK302      0.0000
     11  O2        -6.3850    1.7850   15.9800 O.2   302  9UK302      0.0000
     12  B93       -3.8710    7.0440   11.7320 B     302  9UK302      0.0000
     13  B3        -2.6110    6.5940   12.9720 B     302  9UK302      0.0000
     14  B2        -5.4770    6.5850   12.4040 B     302  9UK302      0.0000
     15  C93       -3.4830    5.9710   14.2870 C.3   302  9UK302      0.0000
     16  S         -5.1520    1.0750   16.2350 S.O2  302  9UK302      0.0000
     17  O1        -4.3340    1.5360   17.3670 O.2   302  9UK302      0.0000
     18  N2        -5.2200   -0.5120   16.1090 N.3   302  9UK302      0.0000
     19  N1        -4.2470    1.3550   14.8220 N.3   302  9UK302      0.0000
     20  C3        -4.1890    2.7430   14.3920 C.3   302  9UK302      0.0000
     21  C95       -3.9850    3.0470   12.9220 C.3   302  9UK302      0.0000
     22  B95       -2.4750    3.6320   12.4330 B     302  9UK302      0.0000
     23  B         -2.9330    1.9130   12.1450 B     302  9UK302      0.0000
     24  B94       -2.7360    4.5420   10.9000 B     302  9UK302      0.0000
     25  B17       -3.4230    3.3710    9.7360 B     302  9UK302      0.0000
     26  B15       -3.5160    1.7680   10.4900 B     302  9UK302      0.0000
     27  B16       -4.9670    2.7610   10.3610 B     302  9UK302      0.0000
     28  C94       -5.1460    3.5160   11.8870 C.3   302  9UK302      0.0000
     29  B14       -4.6640    1.8510   11.8310 B     302  9UK302      0.0000
@<TRIPOS>BOND
     1    25    27    1
     2    25    26    1
     3    25     7    1
     4    25     8    1
     5    27    26    1
     6    27    29    1
     7    27    28    1
     8    26    29    1
     9    26    23    1
    10     7    24    1
    11     7    28    1
    12     8    23    1
    13     8    22    1
    14    24    22    1
    15    12    14    1
    16    12    13    1
    17    29    28    1
    18    29    23    1
    19    28    21    1
    20    23    21    1
    21    14     5    1
    22    14     3    1
    23    14    10    1
    24    22    21    1
    25     5     4    1
    26     5     3    1
    27     4    13    1
    28     4     9    1
    29     4     6    1
    30    21    20    1
    31    13    15    1
    32     3    10    1
    33     3     9    1
    34    10    15    1
    35    10     1    1
    36     9     6    1
    37     9     1    1
    38    15     6    1
    39    15     1    1
    40    20    19    1
    41     6     1    1
    42    19    16    1
    43    11    16    2
    44    18    16    1
    45    16    17    2
