@<TRIPOS>MOLECULE
6HR3_4JE_A305
 13 13 0 0 0
SMALL
GASTEIGER

@<TRIPOS>ATOM
      1 C          -2.5530    6.4510   14.0550 C.3     1  UNL1        0.0047
      2 C          -6.0430    3.3740   15.3830 C.ar    1  UNL1        0.0197
      3 C          -3.6640    5.6130   13.4630 C.3     1  UNL1        0.0264
      4 C          -3.3620    3.4180   14.6930 C.ar    1  UNL1       -0.0029
      5 C          -4.1840    4.4770   14.3130 C.ar    1  UNL1       -0.0221
      6 O          -7.2910    1.0730   16.6110 O.2     1  UNL1       -0.1503
      7 S          -5.8670    0.9900   16.7350 S.O2    1  UNL1        0.0935
      8 O          -5.2900    1.1600   18.0540 O.2     1  UNL1       -0.1503
      9 N          -5.3550   -0.3620   16.1030 N.3     1  UNL1        0.0392
     10 C          -5.2170    2.3180   15.7530 C.ar    1  UNL1        0.1250
     11 C          -5.5180    4.4460   14.6810 C.ar    1  UNL1       -0.0029
     12 C          -3.8690    2.3430   15.4120 C.ar    1  UNL1        0.0197
     13 C          -2.0990    7.5560   13.1180 C.3     1  UNL1        0.0004
@<TRIPOS>BOND
     1     3     1    1
     2     5     4   ar
     3     5     3    1
     4     7     6    2
     5     8     7    2
     6     7     9    1
     7    10     2   ar
     8    10     7    1
     9    11     2   ar
    10    11     5   ar
    11    12    10   ar
    12    12     4   ar
    13    13     1    1
