@<TRIPOS>MOLECULE
6I3E_H1Z_A309
 15 15 0 0 0
SMALL
GASTEIGER

@<TRIPOS>ATOM
      1 C          -4.1940    4.5800   14.5860 C.ar    1  UNL1        0.1386
      2 C          -3.3940    3.4710   14.7920 C.ar    1  UNL1        0.0383
      3 C          -3.9140    2.3590   15.4320 C.ar    1  UNL1        0.0231
      4 C          -5.2410    2.3600   15.8430 C.ar    1  UNL1        0.1252
      5 C          -6.0510    3.4570   15.5970 C.ar    1  UNL1        0.0231
      6 C          -5.5220    4.5700   14.9690 C.ar    1  UNL1        0.0383
      7 O          -7.3070    1.0580   16.6150 O.2     1  UNL1       -0.1503
      8 S          -5.8860    0.9930   16.7630 S.O2    1  UNL1        0.0935
      9 O          -5.3480    1.1030   18.0880 O.2     1  UNL1       -0.1503
     10 N          -5.3330   -0.3330   16.0890 N.3     1  UNL1        0.0392
     11 O          -3.7400    5.7420   14.0180 O.3     1  UNL1       -0.4755
     12 C          -2.3660    5.7990   13.6040 C.3     1  UNL1        0.2054
     13 C          -1.9920    7.2370   13.2990 C.3     1  UNL1        0.0473
     14 C          -1.8390    8.0920   14.5540 C.3     1  UNL1        0.0038
     15 C          -1.2550    9.4400   14.2740 C.3     1  UNL1        0.0001
@<TRIPOS>BOND
     1     2     1   ar
     2     3     2   ar
     3     4     3   ar
     4     5     4   ar
     5     6     5   ar
     6     6     1   ar
     7     8     7    2
     8     8     4    1
     9     9     8    2
    10     8    10    1
    11    11     1    1
    12    12    11    1
    13    13    12    1
    14    14    13    1
    15    15    14    1
