@<TRIPOS>MOLECULE
6RFH_4SO_A305
 13 13 0 0 0
SMALL
GASTEIGER

@<TRIPOS>ATOM
      1 O          -5.4020    1.0660   18.1170 O.2     1  UNL1       -0.1503
      2 O          -4.1130    6.6500   13.5240 O.co2   1  UNL1       -0.2406
      3 C          -5.4220    4.5020   14.8220 C.ar    1  UNL1        0.0079
      4 C          -6.0020    3.4260   15.4610 C.ar    1  UNL1        0.0202
      5 C          -5.2020    2.3780   15.9160 C.ar    1  UNL1        0.1251
      6 S          -5.9000    0.9820   16.7590 S.O2    1  UNL1        0.0935
      7 N          -5.3410   -0.3160   16.0520 N.3     1  UNL1        0.0392
      8 C          -3.4200    5.7270   13.9300 C.2     1  UNL1        0.3878
      9 C          -4.0420    4.5660   14.6310 C.ar    1  UNL1        0.0799
     10 C          -3.2550    3.5330   15.1200 C.ar    1  UNL1        0.0079
     11 C          -3.8240    2.4390   15.7550 C.ar    1  UNL1        0.0202
     12 O          -7.3070    1.0820   16.5560 O.2     1  UNL1       -0.1503
     13 O          -2.1260    5.6950   13.8160 O.co2   1  UNL1       -0.2406
@<TRIPOS>BOND
     1     4     3   ar
     2     5     4   ar
     3     6     5    1
     4     6     1    2
     5     6     7    1
     6     8     2   ar
     7     9     3   ar
     8     9     8    1
     9    10     9   ar
    10    11    10   ar
    11    11     5   ar
    12    12     6    2
    13    13     8   ar
