@<TRIPOS>MOLECULE
6ROB_KBZ_A306
 12 12 0 0 0
SMALL
GASTEIGER

@<TRIPOS>ATOM
      1 C          -5.2540    2.3420   15.8360 C.ar    1  UNL1        0.1251
      2 C          -6.0900    3.4000   15.5070 C.ar    1  UNL1        0.0207
      3 C          -5.5710    4.5120   14.8720 C.ar    1  UNL1        0.0116
      4 N          -5.3670   -0.3650   16.0670 N.3     1  UNL1        0.0392
      5 N          -3.2080    6.6750   13.4580 N.1     1  UNL1       -0.1908
      6 C          -3.6680    5.7530   13.9440 C.1     1  UNL1        0.1004
      7 O          -7.3290    1.0460   16.6150 O.2     1  UNL1       -0.1503
      8 C          -4.2140    4.5760   14.5710 C.ar    1  UNL1        0.0685
      9 C          -3.3830    3.5120   14.9030 C.ar    1  UNL1        0.0116
     10 C          -3.9000    2.3940   15.5330 C.ar    1  UNL1        0.0207
     11 O          -5.3490    1.1000   18.0790 O.2     1  UNL1       -0.1503
     12 S          -5.8990    0.9630   16.7450 S.O2    1  UNL1        0.0935
@<TRIPOS>BOND
     1     2     1   ar
     2     3     2   ar
     3     6     5    3
     4     8     3   ar
     5     8     6    1
     6     9     8   ar
     7    10     9   ar
     8    10     1   ar
     9    12     7    2
    10    12     4    1
    11    12     1    1
    12    12    11    2
