@<TRIPOS>MOLECULE
6RQI_FBW_A307
 11 11 0 0 0
SMALL
GASTEIGER

@<TRIPOS>ATOM
      1 C          -4.1570    4.5960   14.5480 C.ar    1  UNL1        0.0297
      2 C          -5.4760    4.5170   14.8660 C.ar    1  UNL1        0.1415
      3 C          -6.0520    3.4360   15.5130 C.ar    1  UNL1        0.0496
      4 C          -5.2230    2.3790   15.8400 C.ar    1  UNL1        0.1273
      5 C          -3.8610    2.4210   15.5410 C.ar    1  UNL1        0.0202
      6 C          -3.3450    3.5340   14.8920 C.ar    1  UNL1        0.0037
      7 S          -5.8740    0.9930   16.7510 S.O2    1  UNL1        0.0936
      8 N          -5.3410   -0.3330   16.0540 N.3     1  UNL1        0.0392
      9 O          -5.3340    1.1060   18.0740 O.2     1  UNL1       -0.1503
     10 O          -7.2960    1.0600   16.5970 O.2     1  UNL1       -0.1503
     11 F          -6.2710    5.5570   14.5250 F       1  UNL1       -0.2041
@<TRIPOS>BOND
     1     2     1   ar
     2     3     2   ar
     3     4     3   ar
     4     5     4   ar
     5     6     5   ar
     6     6     1   ar
     7     7     4    1
     8     7     8    1
     9     9     7    2
    10    10     7    2
    11    11     2    1
