@<TRIPOS>MOLECULE
6SBM_L4W_A306
 16 16 0 0 0
SMALL
GASTEIGER

@<TRIPOS>ATOM
      1 C          -2.4220    5.5910   13.3860 C.3     1  UNL1        0.2054
      2 C          -4.2650    4.5390   14.5190 C.ar    1  UNL1        0.1386
      3 C          -5.5930    4.5170   14.8990 C.ar    1  UNL1        0.0383
      4 C          -6.1040    3.4180   15.5720 C.ar    1  UNL1        0.0231
      5 C          -5.2710    2.3500   15.8690 C.ar    1  UNL1        0.1252
      6 C          -3.9450    2.3620   15.4780 C.ar    1  UNL1        0.0231
      7 C          -3.4430    3.4620   14.7940 C.ar    1  UNL1        0.0383
      8 N          -5.3620   -0.3570   16.0800 N.3     1  UNL1        0.0392
      9 C          -1.1600    9.6840   14.8030 C.3     1  UNL1        0.0000
     10 O          -3.7860    5.6300   13.8380 O.3     1  UNL1       -0.4755
     11 C          -1.2610    8.2590   14.3190 C.3     1  UNL1        0.0001
     12 C          -2.3020    8.0800   13.2430 C.3     1  UNL1        0.0038
     13 C          -2.1810    6.7770   12.4920 C.3     1  UNL1        0.0473
     14 O          -7.3270    1.0100   16.6360 O.2     1  UNL1       -0.1503
     15 O          -5.3610    1.0620   18.1090 O.2     1  UNL1       -0.1503
     16 S          -5.9090    0.9700   16.7800 S.O2    1  UNL1        0.0935
@<TRIPOS>BOND
     1     3     2   ar
     2     4     3   ar
     3     5     4   ar
     4     6     5   ar
     5     7     6   ar
     6     7     2   ar
     7    10     2    1
     8    10     1    1
     9    11     9    1
    10    12    11    1
    11    13    12    1
    12    13     1    1
    13    16    14    2
    14    16     8    1
    15    16     5    1
    16    16    15    2
