@<TRIPOS>MOLECULE
6SG6_LC8_A304
 20 21 0 0 0
SMALL
GASTEIGER

@<TRIPOS>ATOM
      1 O          -5.4640    6.3090   13.2520 O.co2   1  UNL1       -0.5760
      2 C          -1.6480    5.6360   13.6650 C.3     1  UNL1        0.1764
      3 C          -1.2570    7.0730   13.6550 C.ar    1  UNL1        0.1448
      4 O          -7.2150    5.1940   13.7980 O.2     1  UNL1        0.0415
      5 C          -0.5910    7.8420   12.7820 C.ar    1  UNL1        0.0380
      6 N          -3.0820    5.4690   13.6820 N.pl3   1  UNL1       -0.2235
      7 C          -0.4950    9.1400   13.3630 C.ar    1  UNL1        0.0435
      8 C          -1.1050    9.0760   14.5370 C.ar    1  UNL1        0.1792
      9 N          -6.0080    5.3630   13.7990 N.pl3   1  UNL1        0.0823
     10 C          -5.1550    4.3510   14.4410 C.ar    1  UNL1        0.3058
     11 C          -5.8070    3.3330   15.1300 C.ar    1  UNL1        0.0966
     12 N          -5.3400   -0.3780   16.0560 N.3     1  UNL1        0.0392
     13 C          -5.0490    2.3070   15.6810 C.ar    1  UNL1        0.1312
     14 O          -5.2900    1.1640   17.9950 O.2     1  UNL1       -0.1503
     15 C          -3.6720    2.2910   15.5370 C.ar    1  UNL1        0.0217
     16 C          -3.0470    3.3310   14.8670 C.ar    1  UNL1        0.0237
     17 C          -3.7490    4.4050   14.3090 C.ar    1  UNL1        0.1352
     18 O          -7.2270    1.1570   16.4890 O.2     1  UNL1       -0.1503
     19 O          -1.5940    7.8110   14.7550 O.2     1  UNL1       -0.4529
     20 S          -5.8200    1.0120   16.6590 S.O2    1  UNL1        0.0937
@<TRIPOS>UNITY_ATOM_ATTR
1 1
charge -1
9 1
charge 1
@<TRIPOS>BOND
     1     3     2    1
     2     5     3   ar
     3     6     2    1
     4     7     5   ar
     5     8     7   ar
     6     9     4    2
     7     9     1    1
     8    10     9    1
     9    11    10   ar
    10    13    11   ar
    11    15    13   ar
    12    16    15   ar
    13    17    16   ar
    14    17    10   ar
    15    17     6    1
    16    19     8   ar
    17    19     3   ar
    18    20    18    2
    19    20    13    1
    20    20    12    1
    21    20    14    2
