@<TRIPOS>MOLECULE
6T81_MUE_A302
 14 15 0 0 0
SMALL
GASTEIGER

@<TRIPOS>ATOM
      1 C          -4.9940    6.5660   13.2260 C.ar    1  UNL1        0.0000
      2 C          -6.3520    6.4630   13.5240 C.ar    1  UNL1        0.0000
      3 C          -6.2060    3.2450   15.3940 C.ar    1  UNL1        0.0200
      4 C          -5.2420    2.3010   15.8460 C.ar    1  UNL1        0.1250
      5 C          -3.8850    2.4360   15.6000 C.ar    1  UNL1        0.0200
      6 C          -3.5490    3.6270   14.8620 C.ar    1  UNL1        0.0014
      7 C          -5.8610    4.3780   14.6940 C.ar    1  UNL1        0.0013
      8 C          -6.7630    5.3360   14.2650 C.ar    1  UNL1        0.0000
      9 O          -7.3140    0.9830   16.5840 O.2     1  UNL1       -0.1503
     10 S          -5.8430    0.9130   16.7400 S.O2    1  UNL1        0.0935
     11 O          -5.2930    1.0060   18.0970 O.2     1  UNL1       -0.1503
     12 N          -5.3020   -0.4650   15.9730 N.3     1  UNL1        0.0392
     13 C          -4.5270    4.5310   14.4050 C.ar    1  UNL1        0.0001
     14 C          -4.0580    5.6650   13.6870 C.ar    1  UNL1        0.0000
@<TRIPOS>BOND
     1     2     1   ar
     2     4     3   ar
     3     5     4   ar
     4     6     5   ar
     5     7     3   ar
     6     8     7   ar
     7     8     2   ar
     8    10     9    2
     9    10     4    1
    10    11    10    2
    11    10    12    1
    12    13     7   ar
    13    13     6   ar
    14    14    13   ar
    15    14     1   ar
