@<TRIPOS>MOLECULE
6YZT_Q3E_A302
 19 29 0 0 0
SMALL
GASTEIGER

@<TRIPOS>ATOM
      1  O1        -5.1480    1.3070   17.9740 O.2   302  Q3E302      0.0000
      2  S         -5.6540    0.9920   16.6370 S.O2  302  Q3E302      0.0000
      3  O2        -7.0570    1.3560   16.4280 O.2   302  Q3E302      0.0000
      4  N         -5.4630   -0.4960   16.3040 N.3   302  Q3E302      0.0000
      5  C5        -4.5880    1.9310   15.5080 C.3   302  Q3E302      0.0000
      6  C4        -4.9470    1.7040   14.0800 C.3   302  Q3E302      0.0000
      7  C3        -3.8660    2.3080   13.1830 C.3   302  Q3E302      0.0000
      8  C1        -3.8050    3.8600   13.0180 C.3   302  Q3E302      0.0000
      9  B6        -5.1830    4.5660   12.3070 B     302  Q3E302      0.0000
     10  B11       -4.6140    5.8810   11.3930 B     302  Q3E302      0.0000
     11  B5        -3.6530    4.3620   11.4300 B     302  Q3E302      0.0000
     12  B12       -3.8310    6.9580   12.4850 B     302  Q3E302      0.0000
     13  B7        -5.3310    6.1320   13.0170 B     302  Q3E302      0.0000
     14  B10       -2.8270    5.8930   11.5100 B     302  Q3E302      0.0000
     15  B4        -2.2570    4.5800   12.5530 B     302  Q3E302      0.0000
     16  B9        -2.4040    6.1840   13.2430 B     302  Q3E302      0.0000
     17  B3        -2.9630    4.8360   14.1480 B     302  Q3E302      0.0000
     18  B8        -3.9760    6.3530   14.1150 B     302  Q3E302      0.0000
     19  C2        -4.7230    4.8580   13.9760 C.3   302  Q3E302      0.0000
@<TRIPOS>BOND
     1    10    14    1
     2    10     9    1
     3    10    12    1
     4    10    13    1
     5    11    14    1
     6    11    15    1
     7    11     8    1
     8    14    12    1
     9    14    15    1
    10     9    13    1
    11     9     8    1
    12     9    19    1
    13    12    16    1
    14    12    18    1
    15    15    16    1
    16    15    17    1
    17    13    19    1
    18    13    18    1
    19     8     7    1
    20     8    19    1
    21     7     6    1
    22    16    18    1
    23    16    17    1
    24    19    18    1
    25     6     5    1
    26     5     2    1
    27     4     2    1
    28     3     2    2
    29     2     1    2
