@<TRIPOS>MOLECULE
8ROW_A1H15_A302
 18 18 0 0 0
SMALL
GASTEIGER

@<TRIPOS>ATOM
      1  C1        -3.2600    5.5650   13.5610 C.2   302  A1H302      0.1929
      2  C2        -3.9260    4.4110   14.2420 C.ar  302  A1H302      0.0373
      3  C3        -3.1410    3.3770   14.6990 C.ar  302  A1H302      0.0044
      4  C4        -3.7020    2.3210   15.3770 C.ar  302  A1H302      0.0201
      5  C5        -5.0640    2.3250   15.6390 C.ar  302  A1H302      0.1250
      6  C6        -5.8450    3.3700   15.1840 C.ar  302  A1H302      0.0201
      7  C7        -5.2790    4.4170   14.4930 C.ar  302  A1H302      0.0044
      8  S8        -5.7780    1.0090   16.5760 S.O2  302  A1H302      0.0935
      9  N9        -5.2590   -0.3610   15.9830 N.3   302  A1H302      0.0392
     10  O10       -5.2290    1.1840   17.9070 O.2   302  A1H302     -0.1503
     11  O11       -7.2050    1.1420   16.4030 O.2   302  A1H302     -0.1503
     12  N12       -4.0770    6.3390   12.6480 N.pl3 302  A1H302     -0.0599
     13  C13       -3.7240    7.4790   12.0490 C.cat 302  A1H302      0.5100
     14  N14       -2.7120    8.1700   12.6770 N.pl3 302  A1H302      0.0142
     15  C15       -1.7730    7.6390   13.4990 C.cat 302  A1H302      0.5445
     16  N16       -1.6410    8.0900   14.7080 N.pl3 302  A1H302      0.1360
     17  N17       -4.2910    7.9280   10.9400 N.pl3 302  A1H302      0.1328
     18  N18       -0.9600    6.7100   13.0300 N.pl3 302  A1H302      0.1360
@<TRIPOS>BOND
     1    17    13    2
     2    13    12    1
     3    13    14    1
     4    12     1    2
     5    14    15    2
     6    18    15    1
     7    15    16    1
     8     1     2    1
     9     2     7   ar
    10     2     3   ar
    11     7     6   ar
    12     3     4   ar
    13     6     5   ar
    14     4     5   ar
    15     5     8    1
    16     9     8    1
    17    11     8    2
    18     8    10    2
