@<TRIPOS>MOLECULE
9FJQ_A1IDL_A303
 26 28 0 0 0
SMALL
GASTEIGER

@<TRIPOS>ATOM
      1 C          -5.5980    2.1540   15.6750 C.ar    1  UNL1        0.1831
      2 C          -6.0210    3.4520   15.9520 C.ar    1  UNL1        0.1895
      3 C          -5.8720    4.4760   15.0550 C.ar    1  UNL1        0.1870
      4 C          -5.3290    4.2660   13.7680 C.ar    1  UNL1        0.1508
      5 C          -4.8590    2.9700   13.4450 C.ar    1  UNL1        0.0970
      6 O          -7.4020    0.9360   16.8390 O.2     1  UNL1       -0.1502
      7 C          -4.7600    4.8520   11.1590 C.3     1  UNL1        0.1774
      8 C          -3.8890    3.6700   11.2740 C.3     1  UNL1        0.1169
      9 C          -3.8680    0.4440   11.3160 C.ar    1  UNL1       -0.0024
     10 C          -1.8930   -1.4630   11.0460 C.ar    1  UNL1       -0.0000
     11 C          -4.2280   -0.9240   11.4020 C.ar    1  UNL1       -0.0026
     12 O          -6.7520    5.9720   12.3690 O.2     1  UNL1       -0.1685
     13 S          -5.3750    5.5790   12.6250 S.O2    1  UNL1        0.0138
     14 O          -4.4800    6.5610   13.1400 O.2     1  UNL1       -0.1685
     15 F          -6.2930    5.7130   15.3500 F       1  UNL1       -0.2003
     16 F          -6.5950    3.7280   17.1460 F       1  UNL1       -0.2003
     17 S          -5.9680    0.8950   16.8310 S.O2    1  UNL1        0.0980
     18 N          -5.4400   -0.4880   16.2950 N.3     1  UNL1        0.0394
     19 O          -5.2890    1.2680   18.0460 O.2     1  UNL1       -0.1502
     20 N          -4.4060    2.6920   12.1710 N.pl3   1  UNL1       -0.2989
     21 C          -5.0190    1.9860   14.4070 C.ar    1  UNL1        0.1755
     22 F          -4.5500    0.7700   14.0830 F       1  UNL1       -0.2013
     23 C          -4.8730    1.5220   11.4270 C.3     1  UNL1        0.1178
     24 C          -3.2270   -1.8690   11.2430 C.ar    1  UNL1       -0.0003
     25 C          -1.5580   -0.1140   10.9740 C.ar    1  UNL1       -0.0003
     26 C          -2.5450    0.8530   11.1140 C.ar    1  UNL1       -0.0026
@<TRIPOS>BOND
     1     2     1   ar
     2     3     2   ar
     3     4     3   ar
     4     5     4   ar
     5     8     7    1
     6    11     9   ar
     7    13    12    2
     8    13     7    1
     9    13     4    1
    10    14    13    2
    11    15     3    1
    12    16     2    1
    13    17     1    1
    14    17     6    2
    15    17    18    1
    16    19    17    2
    17    20     8    1
    18    20     5    1
    19    21     1   ar
    20    21     5   ar
    21    22    21    1
    22    23    20    1
    23    23     9    1
    24    24    11   ar
    25    24    10   ar
    26    25    10   ar
    27    26    25   ar
    28    26     9   ar
