@<TRIPOS>MOLECULE
9GFW_A1IKU_A302
 11 11 0 0 0
SMALL
GASTEIGER

@<TRIPOS>ATOM
      1  C2        -3.8060    2.2450   15.2650 C.ar  302  A1I302      0.0000
      2  C4        -4.1000    4.4640   14.2800 C.ar  302  A1I302      0.0000
      3  C5        -5.4490    4.3330   14.5900 C.ar  302  A1I302      0.0000
      4  C6        -5.9620    3.1980   15.2370 C.ar  302  A1I302      0.0000
      5  C1        -5.1710    2.0650   15.5890 C.ar  302  A1I302      0.0000
      6  C3        -3.3010    3.3850   14.6370 C.ar  302  A1I302      0.0000
      7  C7        -3.4950    5.6870   13.6060 C.3   302  A1I302      0.0000
      8  B1        -5.7090    0.7250   16.3620 B     302  A1I302      0.0000
      9  O1        -5.1620   -0.4930   15.9490 O.3   302  A1I302      0.0000
     10  O2        -5.3300    0.9340   17.8440 O.3   302  A1I302      0.0000
     11  O3        -7.1380    0.6280   16.2840 O.3   302  A1I302      0.0000
@<TRIPOS>BOND
     1     7     2    1
     2     2     3   ar
     3     2     6   ar
     4     3     4   ar
     5     6     1   ar
     6     4     5   ar
     7     1     5   ar
     8     5     8    1
     9     9     8    1
    10    11     8    1
    11     8    10    1
