4UHR_NGI_A1320
     RDKit          3D

 36 39  0  0  0  0  0  0  0  0999 V2000
    1.5010   87.7560   48.1670 C   0  0  0  0  0  0  0  0  0  0  0  0
    1.7750   89.5080   49.8780 N   0  0  0  0  0  0  0  0  0  0  0  0
    0.2390   90.6720   51.0620 O   0  0  0  0  0  0  0  0  0  0  0  0
    0.8740   88.5110   49.3220 C   0  0  0  0  0  0  0  0  0  0  0  0
    1.5140   94.2790   51.9260 N   0  0  0  0  0  0  0  0  0  0  0  0
    2.6990   92.4110   50.9880 O   0  0  0  0  0  0  0  0  0  0  0  0
    1.4040   90.4010   50.7990 C   0  0  0  0  0  0  0  0  0  0  0  0
   -0.5090   94.9740   51.3990 N   0  0  0  0  0  0  0  0  0  0  0  0
    4.0640   92.5490   53.8260 O   0  0  0  0  0  0  0  0  0  0  0  0
    2.5230   91.0910   51.5180 C   0  0  0  0  0  0  0  0  0  0  0  0
   -1.5550   97.6870   52.1780 N   0  0  0  0  0  0  0  0  0  0  0  0
    2.8540   90.2450   53.7900 O   0  0  0  0  0  0  0  0  0  0  0  0
    2.7150   93.3990   52.0300 C   0  0  0  0  0  0  0  0  0  0  0  0
    0.5320   98.0180   53.1920 N   0  0  0  0  0  0  0  0  0  0  0  0
    0.6140  108.7230   56.5120 O   0  0  0  0  0  0  0  0  0  0  0  0
    2.7170   92.6380   53.3490 C   0  0  0  0  0  0  0  0  0  0  0  0
    2.6170   98.3860   54.2160 N   0  0  0  0  0  0  0  0  0  0  0  0
    2.4300  107.5810   56.9900 O   0  0  0  0  0  0  0  0  0  0  0  0
    2.2120   91.2530   52.9990 C   0  0  0  0  0  0  0  0  0  0  0  0
    2.1960   96.3460   53.1300 N   0  0  0  0  0  0  0  0  0  0  0  0
    0.3690   93.9510   51.3070 C   0  0  0  0  0  0  0  0  0  0  0  0
    0.0960   95.9610   52.0930 C   0  0  0  0  0  0  0  0  0  0  0  0
   -0.3160   97.2320   52.4910 C   0  0  0  0  0  0  0  0  0  0  0  0
    1.7790   97.5850   53.5110 C   0  0  0  0  0  0  0  0  0  0  0  0
    2.4350   99.8290   54.2570 C   0  0  0  0  0  0  0  0  0  0  0  0
    2.0760  100.3470   55.6650 C   0  0  0  0  0  0  0  0  0  0  0  0
    1.5110  101.7580   55.6290 C   0  0  0  0  0  0  0  0  0  0  0  0
    1.0620  102.3450   54.4320 C   0  0  0  0  0  0  0  0  0  0  0  0
    0.5470  103.6450   54.4360 C   0  0  0  0  0  0  0  0  0  0  0  0
    0.4810  104.3710   55.6390 C   0  0  0  0  0  0  0  0  0  0  0  0
   -0.0770  105.7820   55.6650 C   0  0  0  0  0  0  0  0  0  0  0  0
    0.9590  106.7890   55.1670 C   0  0  0  0  0  0  0  0  0  0  0  0
    1.3240  107.7590   56.2690 C   0  0  0  0  0  0  0  0  0  0  0  0
    0.9260  103.7850   56.8300 C   0  0  0  0  0  0  0  0  0  0  0  0
    1.4410  102.4870   56.8260 C   0  0  0  0  0  0  0  0  0  0  0  0
    1.3750   95.5210   52.4210 C   0  0  0  0  0  0  0  0  0  0  0  0
  4  1  1  0
  4  2  1  0
  7  3  2  0
  7  2  1  0
 10  7  1  0
 10  6  1  0
 13  6  1  0
 13  5  1  0
 16  9  1  0
 16 13  1  0
 19 16  1  0
 19 12  1  0
 19 10  1  0
 21  8  2  0
 21  5  1  0
 22  8  1  0
 23 22  2  0
 23 14  1  0
 23 11  1  0
 24 20  1  0
 24 14  2  0
 24 17  1  0
 25 17  1  0
 26 25  1  0
 27 26  1  0
 28 27  2  0
 29 28  1  0
 30 29  2  0
 31 30  1  0
 32 31  1  0
 33 32  1  0
 33 18  2  0
 33 15  1  0
 34 30  1  0
 35 27  1  0
 35 34  2  0
 36 22  1  0
 36 20  2  0
 36  5  1  0
M  CHG  1  15  -1
M  END
>  <_TriposChargeType>  (1) 
GASTEIGER

$$$$
