5WF5_UKA_A1201
     RDKit          3D

 57 63  0  0  0  0  0  0  0  0999 V2000
    2.9650   92.8920   53.1740 C   0  0  0  0  0  0  0  0  0  0  0  0
    1.6450   94.5160   51.7950 N   0  0  0  0  0  0  0  0  0  0  0  0
    2.7390   92.6970   50.8290 O   0  0  0  0  0  0  0  0  0  0  0  0
    2.1910   91.6120   52.8530 C   0  0  0  0  0  0  0  0  0  0  0  0
    1.7180   89.6010   49.9830 N   0  0  0  0  0  0  0  0  0  0  0  0
    2.6180   90.5230   53.6620 O   0  0  0  0  0  0  0  0  0  0  0  0
    2.5640   91.3860   51.3850 C   0  0  0  0  0  0  0  0  0  0  0  0
   -0.4160   95.2280   51.2410 N   0  0  0  0  0  0  0  0  0  0  0  0
    4.3370   92.6410   53.4580 O   0  0  0  0  0  0  0  0  0  0  0  0
    2.8240   93.6600   51.8630 C   0  0  0  0  0  0  0  0  0  0  0  0
    0.8550   98.2640   52.9590 N   0  0  0  0  0  0  0  0  0  0  0  0
    0.2450   91.0560   50.8780 O   0  0  0  0  0  0  0  0  0  0  0  0
    1.3980   90.6630   50.7220 C   0  0  0  0  0  0  0  0  0  0  0  0
    2.4490   96.4980   52.9460 N   0  0  0  0  0  0  0  0  0  0  0  0
    4.1310   98.0350   54.3900 O   0  0  0  0  0  0  0  0  0  0  0  0
    0.7390   88.7730   49.2800 C   0  0  0  0  0  0  0  0  0  0  0  0
   -1.2020   98.1450   51.8850 N   0  0  0  0  0  0  0  0  0  0  0  0
    2.2260  103.4470   56.4230 O   0  0  0  0  0  0  0  0  0  0  0  0
    1.3500   87.5090   48.7690 C   0  0  0  0  0  0  0  0  0  0  0  0
    2.6060   99.6790   54.5910 N   0  0  0  0  0  0  0  0  0  0  0  0
    0.4440   94.2390   51.1980 C   0  0  0  0  0  0  0  0  0  0  0  0
    2.4720  102.5490   54.3690 N   0  0  0  0  0  0  0  0  0  0  0  0
    0.2710   96.2270   51.9170 C   0  0  0  0  0  0  0  0  0  0  0  0
    0.7830  104.0170   54.7680 N   0  0  0  0  0  0  0  0  0  0  0  0
    1.5310   95.7980   52.2770 C   0  0  0  0  0  0  0  0  0  0  0  0
   -2.4760  106.3280   56.1820 N   0  0  0  0  0  0  0  0  0  0  0  0
   -0.0600   97.5540   52.2710 C   0  0  0  0  0  0  0  0  0  0  0  0
   -3.8620  107.1190   54.5170 N   0  0  0  0  0  0  0  0  0  0  0  0
    2.0430   97.7280   53.2740 C   0  0  0  0  0  0  0  0  0  0  0  0
   -1.4400   99.5750   51.9880 C   0  0  0  0  0  0  0  0  0  0  0  0
   -2.4510   99.9140   53.0840 C   0  0  0  0  0  0  0  0  0  0  0  0
   -3.0260  101.3190   52.9630 C   0  0  0  0  0  0  0  0  0  0  0  0
   -1.8370   99.6880   54.4580 C   0  0  0  0  0  0  0  0  0  0  0  0
   -2.4950  102.2440   52.0730 C   0  0  0  0  0  0  0  0  0  0  0  0
   -3.0050  103.5270   52.0010 C   0  0  0  0  0  0  0  0  0  0  0  0
   -4.0500  103.9040   52.8150 C   0  0  0  0  0  0  0  0  0  0  0  0
   -4.5900  102.9960   53.6970 C   0  0  0  0  0  0  0  0  0  0  0  0
   -4.0830  101.7120   53.7710 C   0  0  0  0  0  0  0  0  0  0  0  0
   -2.1820   98.5810   55.2200 C   0  0  0  0  0  0  0  0  0  0  0  0
   -1.6150   98.3790   56.4660 C   0  0  0  0  0  0  0  0  0  0  0  0
   -0.6990   99.2770   56.9650 C   0  0  0  0  0  0  0  0  0  0  0  0
   -0.3500  100.3800   56.2200 C   0  0  0  0  0  0  0  0  0  0  0  0
   -0.9150  100.5870   54.9740 C   0  0  0  0  0  0  0  0  0  0  0  0
    3.0190   98.4940   54.1410 C   0  0  0  0  0  0  0  0  0  0  0  0
    3.4550  100.5450   55.3940 C   0  0  0  0  0  0  0  0  0  0  0  0
    3.7140  101.8620   54.6930 C   0  0  0  0  0  0  0  0  0  0  0  0
    1.8500  103.3430   55.2590 C   0  0  0  0  0  0  0  0  0  0  0  0
   -0.0100  104.9380   55.5790 C   0  0  0  0  0  0  0  0  0  0  0  0
   -0.4820  106.1150   54.7460 C   0  0  0  0  0  0  0  0  0  0  0  0
   -1.3420  107.0460   55.5910 C   0  0  0  0  0  0  0  0  0  0  0  0
   -2.0290  105.2080   57.0150 C   0  0  0  0  0  0  0  0  0  0  0  0
   -1.1900  104.2260   56.2080 C   0  0  0  0  0  0  0  0  0  0  0  0
   -4.7990  105.6700   56.1880 C   0  0  0  0  0  0  0  0  0  0  0  0
   -6.0350  105.7670   55.5750 C   0  0  0  0  0  0  0  0  0  0  0  0
   -6.1840  106.5340   54.4460 C   0  0  0  0  0  0  0  0  0  0  0  0
   -5.0780  107.1880   53.9550 C   0  0  0  0  0  0  0  0  0  0  0  0
   -3.7310  106.3680   55.6200 C   0  0  0  0  0  0  0  0  0  0  0  0
  4  1  1  0
  4  6  1  0
  7  4  1  0
  7  3  1  0
  1  9  1  0
 10  3  1  0
 10  2  1  0
 10  1  1  0
 13 12  2  0
  7 13  1  0
 13  5  1  0
 16  5  1  0
 19 16  1  0
 21  8  2  0
 21  2  1  0
 23  8  1  0
 25 23  2  0
 25 14  1  0
 25  2  1  0
 27 23  1  0
 27 17  1  0
 27 11  2  0
 29 14  2  0
 29 11  1  0
 30 17  1  0
 31 30  1  0
 32 31  1  0
 33 31  1  0
 34 32  2  0
 35 34  1  0
 36 35  2  0
 37 36  1  0
 38 37  2  0
 38 32  1  0
 39 33  2  0
 40 39  1  0
 41 40  2  0
 42 41  1  0
 43 33  1  0
 43 42  2  0
 44 29  1  0
 44 15  2  0
 44 20  1  0
 45 20  1  0
 46 22  1  0
 46 45  1  0
 47 22  1  0
 47 18  2  0
 47 24  1  0
 48 24  1  0
 49 48  1  0
 50 49  1  0
 50 26  1  0
 51 26  1  0
 52 51  1  0
 52 48  1  0
 54 53  1  0
 55 54  2  0
 56 55  1  0
 56 28  2  0
 57 53  2  0
 57 28  1  0
 57 26  1  0
M  CHG  1   5   1
M  END
>  <_TriposChargeType>  (1) 
GASTEIGER

$$$$
