7NDO_RAL_B601
     RDKit          3D

 62 66  0  0  0  0  0  0  0  0999 V2000
   23.8770  -11.1930    4.0040 C   0  0  0  0  0  0  0  0  0  0  0  0
   23.0560  -10.8860    2.9210 C   0  0  0  0  0  0  0  0  0  0  0  0
   21.6660  -11.1370    3.0130 C   0  0  0  0  0  0  0  0  0  0  0  0
   20.8590  -10.8240    1.9330 O   0  0  0  0  0  0  0  0  0  0  0  0
   21.0810  -11.6770    4.1530 C   0  0  0  0  0  0  0  0  0  0  0  0
   21.9190  -11.9800    5.2370 C   0  0  0  0  0  0  0  0  0  0  0  0
   21.4900  -12.6590    6.7990 S   0  0  0  0  0  0  0  0  0  0  0  0
   23.1440  -12.6200    7.3590 C   0  0  0  0  0  0  0  0  0  0  0  0
   23.6020  -13.1330    8.6840 C   0  0  0  0  0  0  0  0  0  0  0  0
   24.4200  -12.4530    9.5820 C   0  0  0  0  0  0  0  0  0  0  0  0
   24.8130  -13.0620   10.7880 C   0  0  0  0  0  0  0  0  0  0  0  0
   24.3890  -14.3660   11.0780 C   0  0  0  0  0  0  0  0  0  0  0  0
   24.7540  -14.9940   12.2490 O   0  0  0  0  0  0  0  0  0  0  0  0
   23.5880  -15.0670   10.1860 C   0  0  0  0  0  0  0  0  0  0  0  0
   23.2080  -14.4480    8.9940 C   0  0  0  0  0  0  0  0  0  0  0  0
   23.3060  -11.7330    5.1610 C   0  0  0  0  0  0  0  0  0  0  0  0
   23.9740  -12.1270    6.3840 C   0  0  0  0  0  0  0  0  0  0  0  0
   25.4680  -11.9660    6.5720 C   0  0  0  0  0  0  0  0  0  0  0  0
   26.1980  -12.9350    6.6510 O   0  0  0  0  0  0  0  0  0  0  0  0
   25.9770  -10.5590    6.7130 C   0  0  0  0  0  0  0  0  0  0  0  0
   27.3710  -10.3210    6.6300 C   0  0  0  0  0  0  0  0  0  0  0  0
   27.8860   -9.0210    6.7640 C   0  0  0  0  0  0  0  0  0  0  0  0
   26.9670   -7.9630    6.9820 C   0  0  0  0  0  0  0  0  0  0  0  0
   25.5750   -8.2080    7.0720 C   0  0  0  0  0  0  0  0  0  0  0  0
   25.0760   -9.5070    6.9370 C   0  0  0  0  0  0  0  0  0  0  0  0
   27.4300   -6.6220    7.1330 O   0  0  0  0  0  0  0  0  0  0  0  0
   28.6810   -6.3480    6.4560 C   0  0  0  0  0  0  0  0  0  0  0  0
   29.1710   -4.9130    6.8640 C   0  0  0  0  0  0  0  0  0  0  0  0
   28.5900   -3.8500    5.9170 N   0  0  0  0  0  0  0  0  0  0  0  0
   29.1790   -2.5380    6.3780 C   0  0  0  0  0  0  0  0  0  0  0  0
   28.7080   -1.4420    5.4360 C   0  0  0  0  0  0  0  0  0  0  0  0
   27.1810   -1.3280    5.5130 C   0  0  0  0  0  0  0  0  0  0  0  0
   26.5270   -2.6760    5.1860 C   0  0  0  0  0  0  0  0  0  0  0  0
   27.1110   -3.7950    6.0800 C   0  0  0  0  0  0  0  0  0  0  0  0
   24.7930  -11.0390    3.9530 H   0  0  0  0  0  0  0  0  0  0  0  0
   23.4110  -10.5210    2.1430 H   0  0  0  0  0  0  0  0  0  0  0  0
   21.3260  -10.9840    1.2410 H   0  0  0  0  0  0  0  0  0  0  0  0
   20.1630  -11.8220    4.1690 H   0  0  0  0  0  0  0  0  0  0  0  0
   24.7160  -11.5910    9.3960 H   0  0  0  0  0  0  0  0  0  0  0  0
   25.3510  -12.6120   11.3990 H   0  0  0  0  0  0  0  0  0  0  0  0
   24.8820  -14.3700   12.8120 H   0  0  0  0  0  0  0  0  0  0  0  0
   23.3180  -15.9320   10.3950 H   0  0  0  0  0  0  0  0  0  0  0  0
   22.6800  -14.9400    8.4070 H   0  0  0  0  0  0  0  0  0  0  0  0
   27.9510  -11.0340    6.4860 H   0  0  0  0  0  0  0  0  0  0  0  0
   28.8000   -8.8610    6.7110 H   0  0  0  0  0  0  0  0  0  0  0  0
   24.9700   -7.5180    7.2220 H   0  0  0  0  0  0  0  0  0  0  0  0
   24.1560   -9.6240    7.0010 H   0  0  0  0  0  0  0  0  0  0  0  0
   28.5610   -6.4040    5.4960 H   0  0  0  0  0  0  0  0  0  0  0  0
   29.3450   -7.0130    6.6990 H   0  0  0  0  0  0  0  0  0  0  0  0
   30.1410   -4.9390    6.8600 H   0  0  0  0  0  0  0  0  0  0  0  0
   28.9110   -4.7830    7.7890 H   0  0  0  0  0  0  0  0  0  0  0  0
   30.1480   -2.5710    6.3930 H   0  0  0  0  0  0  0  0  0  0  0  0
   28.9150   -2.3320    7.2880 H   0  0  0  0  0  0  0  0  0  0  0  0
   29.1430   -0.6080    5.6760 H   0  0  0  0  0  0  0  0  0  0  0  0
   29.0080   -1.6440    4.5360 H   0  0  0  0  0  0  0  0  0  0  0  0
   26.8620   -0.6430    4.9050 H   0  0  0  0  0  0  0  0  0  0  0  0
   26.9090   -1.0270    6.3940 H   0  0  0  0  0  0  0  0  0  0  0  0
   26.6580   -2.9130    4.2540 H   0  0  0  0  0  0  0  0  0  0  0  0
   25.5650   -2.6390    5.3100 H   0  0  0  0  0  0  0  0  0  0  0  0
   26.8830   -3.6520    7.0130 H   0  0  0  0  0  0  0  0  0  0  0  0
   26.7190   -4.6560    5.8650 H   0  0  0  0  0  0  0  0  0  0  0  0
   28.8030   -4.0180    5.0690 H   0  0  0  0  0  0  0  0  0  0  0  0
 37  4  1  0
  4  3  1  0
 36  2  1  0
  2  3  1  0
  2  1  2  0
  3  5  2  0
 35  1  1  0
  1 16  1  0
  5 38  1  0
  5  6  1  0
 58 33  1  0
 55 31  1  0
 56 32  1  0
 62 29  1  0
 16  6  2  0
 16 17  1  0
 33 59  1  0
 33 32  1  0
 33 34  1  0
  6  7  1  0
 31 32  1  0
 31 54  1  0
 31 30  1  0
 48 27  1  0
 32 57  1  0
 61 34  1  0
 29 34  1  0
 29 30  1  0
 29 28  1  0
 34 60  1  0
 30 52  1  0
 30 53  1  0
 17 18  1  0
 17  8  2  0
 27 49  1  0
 27 28  1  0
 27 26  1  0
 44 21  1  0
 18 19  2  0
 18 20  1  0
 21 20  2  0
 21 22  1  0
 45 22  1  0
 20 25  1  0
 22 23  2  0
  7  8  1  0
 50 28  1  0
 28 51  1  0
 25 47  1  0
 25 24  2  0
 23 24  1  0
 23 26  1  0
 24 46  1  0
  8  9  1  0
 43 15  1  0
  9 15  1  0
  9 10  2  0
 15 14  2  0
 39 10  1  0
 10 11  1  0
 14 42  1  0
 14 12  1  0
 11 12  2  0
 11 40  1  0
 12 13  1  0
 13 41  1  0
M  CHG  1  29   1
M  END
>  <_TriposChargeType>  (1) 
GASTEIGER

$$$$
