7RRY_L84_C601
     RDKit          3D

 46 51  0  0  0  0  0  0  0  0999 V2000
   21.5630  -11.2260    2.7970 C   0  0  0  0  0  0  0  0  0  0  0  0
   21.6990  -11.9860    5.0270 C   0  0  0  0  0  0  0  0  0  0  0  0
   27.6230   -0.5580    8.4870 C   0  0  0  0  0  0  0  0  0  0  0  0
   27.3290   -2.8740    6.7370 C   0  0  0  0  0  0  0  0  0  0  0  0
   27.0830  -13.6700   12.6440 C   0  0  2  0  0  0  0  0  0  0  0  0
   26.0370  -10.6040   10.8900 C   0  0  0  0  0  0  0  0  0  0  0  0
   26.9900  -10.2610    9.9690 C   0  0  0  0  0  0  0  0  0  0  0  0
   26.7300   -7.9100   10.2300 C   0  0  0  0  0  0  0  0  0  0  0  0
   25.4400   -9.5100   11.4260 C   0  0  0  0  0  0  0  0  0  0  0  0
   25.7450  -10.6820    6.5930 C   0  0  0  0  0  0  0  0  0  0  0  0
   23.0440  -11.8400    5.0960 C   0  0  0  0  0  0  0  0  0  0  0  0
   28.7060   -1.6530    8.3530 C   0  0  0  0  0  0  0  0  0  0  0  0
   26.6950   -0.4930    7.2640 C   0  0  0  0  0  0  0  0  0  0  0  0
   23.2970  -13.2630    7.2110 C   0  0  0  0  0  0  0  0  0  0  0  0
   27.7600   -3.8460    8.9770 C   0  0  0  0  0  0  0  0  0  0  0  0
   25.0100  -12.5050    8.1080 C   0  0  0  0  0  0  0  0  0  0  0  0
   22.6180  -12.5360    8.3760 C   0  0  0  0  0  0  0  0  0  0  0  0
   23.8950  -11.9480    9.0180 C   0  0  0  0  0  0  0  0  0  0  0  0
   22.8930  -11.0760    2.8270 C   0  0  0  0  0  0  0  0  0  0  0  0
   20.9820  -11.6840    3.9290 C   0  0  0  0  0  0  0  0  0  0  0  0
   23.6100  -11.3790    3.9440 C   0  0  0  0  0  0  0  0  0  0  0  0
   28.2880   -6.3900    9.3410 C   0  0  0  0  0  0  0  0  0  0  0  0
   24.9430  -11.7590    6.7730 C   0  0  0  0  0  0  0  0  0  0  0  0
   26.1590   -1.8980    6.9700 C   0  0  0  0  0  0  0  0  0  0  0  0
   26.9220  -12.8530   11.3880 C   0  0  0  0  0  0  0  0  0  0  0  0
   27.3290   -8.9880    9.6590 C   0  0  0  0  0  0  0  0  0  0  0  0
   25.7760   -8.2370   11.1190 C   0  0  0  0  0  0  0  0  0  0  0  0
   23.7630  -12.1670    6.2250 C   0  0  0  0  0  0  0  0  0  0  0  0
   27.0930  -10.8180    6.5280 C   0  0  0  0  0  0  0  0  0  0  0  0
   27.9220   -9.7830    6.3430 C   0  0  0  0  0  0  0  0  0  0  0  0
   27.4420   -8.5360    6.2310 C   0  0  0  0  0  0  0  0  0  0  0  0
   26.1000   -8.3630    6.3060 C   0  0  0  0  0  0  0  0  0  0  0  0
   25.2900   -9.4220    6.4780 C   0  0  0  0  0  0  0  0  0  0  0  0
   28.7700   -4.9220    9.4480 C   0  0  0  0  0  0  0  0  0  0  0  0
   27.6320  -12.9390   13.5760 F   0  0  0  0  0  0  0  0  0  0  0  0
   27.8710  -14.6990   12.4330 F   0  0  0  0  0  0  0  0  0  0  0  0
   26.0170  -14.2460   13.1290 F   0  0  0  0  0  0  0  0  0  0  0  0
   25.7670  -11.8810   11.0870 N   0  0  0  0  0  0  0  0  0  0  0  0
   28.2050   -2.9540    7.9030 N   0  0  0  0  0  0  0  0  0  0  0  0
   24.4600  -13.7660    7.8560 O   0  0  0  0  0  0  0  0  0  0  0  0
   27.0020   -6.5630    9.9580 O   0  0  0  0  0  0  0  0  0  0  0  0
   20.8060  -10.9370    1.7040 O   0  0  0  0  0  0  0  0  0  0  0  0
   24.2250  -13.8840   10.8840 O   0  0  0  0  0  0  0  0  0  0  0  0
   23.4230  -11.5610   11.6160 O   0  0  0  0  0  0  0  0  0  0  0  0
   28.2710   -7.4950    6.0520 O   0  0  0  0  0  0  0  0  0  0  0  0
   24.1640  -12.4180   10.6950 S   0  0  2  0  0  0  0  0  0  0  0  0
  7  6  2  0
  9  6  1  0
 11  2  1  0
 12  3  1  0
 13  3  1  0
 14 17  1  0
 18 17  1  0
 18 16  1  0
 19  1  2  0
 20  2  2  0
 20  1  1  0
 21 19  1  0
 21 11  2  0
 16 23  1  0
 23 10  1  0
 24 13  1  0
 24  4  1  0
 25  5  1  0
 26  8  2  0
 26  7  1  0
 27  8  1  0
 27  9  2  0
 28 11  1  0
 28 23  2  0
 28 14  1  0
 29 10  2  0
 30 29  1  0
 31 30  2  0
 32 31  1  0
 33 32  2  0
 33 10  1  0
 34 22  1  0
 34 15  1  0
  5 35  1  1
 36  5  1  0
 37  5  1  0
 38 25  1  0
 38  6  1  0
 39 15  1  0
 39 12  1  0
 39  4  1  0
 40 16  1  0
 40 14  1  0
 41  8  1  0
 41 22  1  0
 42  1  1  0
 45 31  1  0
 46 43  2  0
 46 18  1  0
 46 44  2  0
 46 38  1  1
M  CHG  1  39   1
M  END
>  <_TriposChargeType>  (1) 
GASTEIGER

$$$$
