7RS8_7EI_C601
     RDKit          3D

 46 51  0  0  0  0  0  0  0  0999 V2000
   22.7790  -10.7080    3.3010 C   0  0  0  0  0  0  0  0  0  0  0  0
   26.2060  -15.6250   10.1770 C   0  0  0  0  0  0  0  0  0  0  0  0
   23.2910  -11.6020    6.7810 C   0  0  0  0  0  0  0  0  0  0  0  0
   26.5850  -10.2920    7.2240 C   0  0  0  0  0  0  0  0  0  0  0  0
   27.4930   -9.3410    7.0090 C   0  0  0  0  0  0  0  0  0  0  0  0
   26.5390  -15.8610    8.8890 C   0  0  0  0  0  0  0  0  0  0  0  0
   25.2600  -10.0410    7.1240 C   0  0  0  0  0  0  0  0  0  0  0  0
   28.3500  -16.5090   10.6970 C   0  0  0  0  0  0  0  0  0  0  0  0
   24.5430  -12.8680    8.9970 C   0  0  0  0  0  0  0  0  0  0  0  0
   27.7130  -16.3870    8.5230 C   0  0  0  0  0  0  0  0  0  0  0  0
   24.3550  -11.0080    7.4000 C   0  0  0  0  0  0  0  0  0  0  0  0
   24.1950  -11.3820    8.8810 C   0  0  0  0  0  0  0  0  0  0  0  0
   21.4510  -11.8390    5.3160 C   0  0  0  0  0  0  0  0  0  0  0  0
   24.5160  -17.7730    9.1800 F   0  0  0  0  0  0  0  0  0  0  0  0
   20.8670  -11.6670    4.1270 C   0  0  0  0  0  0  0  0  0  0  0  0
   31.0970  -16.7670    9.2220 C   0  0  0  0  0  0  0  0  0  0  0  0
   23.9190  -16.1000   10.7370 C   0  0  0  0  0  0  0  0  0  0  0  0
   25.0720  -15.1280   10.5380 N   0  0  0  0  0  0  0  0  0  0  0  0
   27.6240   -1.7450    5.0900 C   0  0  0  0  0  0  0  0  0  0  0  0
   23.5420  -16.9950    9.5900 C   0  0  2  0  0  0  0  0  0  0  0  0
   28.6670  -16.7340    9.3960 C   0  0  0  0  0  0  0  0  0  0  0  0
   22.7320  -11.4500    5.5590 C   0  0  0  0  0  0  0  0  0  0  0  0
   27.1640  -15.9770   11.0720 C   0  0  0  0  0  0  0  0  0  0  0  0
   22.5790  -17.7880    9.9450 F   0  0  0  0  0  0  0  0  0  0  0  0
   29.8320  -17.2760    8.8730 O   0  0  0  0  0  0  0  0  0  0  0  0
   22.5250  -12.2400    7.9530 C   0  0  0  0  0  0  0  0  0  0  0  0
   27.1420   -8.0860    6.6790 C   0  0  0  0  0  0  0  0  0  0  0  0
   28.9120   -0.9160    4.9840 C   0  0  0  0  0  0  0  0  0  0  0  0
   23.6200  -13.4940   11.5270 O   0  0  0  0  0  0  0  0  0  0  0  0
   23.3220  -13.5070    8.2850 C   0  0  0  0  0  0  0  0  0  0  0  0
   21.5130  -11.1140    3.0990 C   0  0  0  0  0  0  0  0  0  0  0  0
   29.0550   -5.0030    6.3840 C   0  0  0  0  0  0  0  0  0  0  0  0
   28.9230   -3.7670    5.6370 N   0  0  0  0  0  0  0  0  0  0  0  0
   27.7660   -2.9590    6.0160 C   0  0  0  0  0  0  0  0  0  0  0  0
   28.1350   -7.1880    6.4810 O   0  0  0  0  0  0  0  0  0  0  0  0
   23.1260  -16.3740    8.5210 F   0  0  0  0  0  0  0  0  0  0  0  0
   27.7950   -5.8490    6.3290 C   0  0  0  0  0  0  0  0  0  0  0  0
   22.8000  -11.4280    9.0680 O   0  0  0  0  0  0  0  0  0  0  0  0
   24.7970  -13.4410   10.6430 S   0  0  2  0  0  0  0  0  0  0  0  0
   23.3720  -10.8820    4.5040 C   0  0  0  0  0  0  0  0  0  0  0  0
   25.8210   -7.8380    6.5670 C   0  0  0  0  0  0  0  0  0  0  0  0
   30.0430   -1.5110    5.8210 C   0  0  0  0  0  0  0  0  0  0  0  0
   20.8720  -10.9750    1.9210 O   0  0  0  0  0  0  0  0  0  0  0  0
   30.1880   -3.0310    5.6510 C   0  0  0  0  0  0  0  0  0  0  0  0
   24.9150   -8.7860    6.7910 C   0  0  0  0  0  0  0  0  0  0  0  0
   26.1210  -13.0740   11.1620 O   0  0  0  0  0  0  0  0  0  0  0  0
  5  4  2  0
  6  2  2  0
  7  4  1  0
 10  6  1  0
 11  3  2  0
 11  7  1  0
 12 11  1  0
 12  9  1  0
 15 13  2  0
 18 17  1  0
 18  2  1  0
 20 14  1  6
 20 17  1  0
 21 10  2  0
 21  8  1  0
 22 13  1  0
 22  3  1  0
 23  2  1  0
 23  8  2  0
 24 20  1  0
 25 21  1  0
 25 16  1  0
 26  3  1  0
 27  5  1  0
 28 19  1  0
 26 30  1  0
  9 30  1  0
 31 15  1  0
 31  1  2  0
 33 32  1  0
 34 19  1  0
 34 33  1  0
 35 27  1  0
 36 20  1  0
 37 35  1  0
 37 32  1  0
 38 26  1  0
 38 12  1  0
 39 18  1  6
 39  9  1  0
 39 29  2  0
 40 22  2  0
 40  1  1  0
 41 27  2  0
 42 28  1  0
 43 31  1  0
 44 42  1  0
 44 33  1  0
 45 41  1  0
 45  7  2  0
 46 39  2  0
M  END
>  <_TriposChargeType>  (1) 
GASTEIGER

$$$$
