@<TRIPOS>MOLECULE
5D5A_CAU_A1202
 22 24 0 0 0
SMALL
GASTEIGER

@<TRIPOS>ATOM
      1 O         -33.4660   11.0330    7.9350 O.3     1  UNL1       -0.2176
      2 C         -32.2250   10.4030    8.0040 C.3     1  UNL1        0.2126
      3 C         -32.3310    8.9790    7.4850 C.3     1  UNL1        0.1253
      4 N         -33.6940    8.4870    7.6350 N.3     1  UNL1       -0.2167
      5 C         -33.6960    7.0380    7.5300 C.3     1  UNL1        0.0730
      6 C         -33.5350    6.6290    6.0710 C.3     1  UNL1        0.0188
      7 C         -35.0140    6.4900    8.0570 C.3     1  UNL1        0.0188
      8 C         -31.2000   11.1630    7.1590 C.3     1  UNL1        0.2395
      9 O         -29.9180   10.5630    7.3900 O.3     1  UNL1       -0.4726
     10 C         -28.8400   11.0500    6.5790 C.ar    1  UNL1        0.1401
     11 C         -28.9590   12.3130    6.0140 C.ar    1  UNL1        0.0370
     12 C         -27.9240   12.8180    5.2230 C.ar    1  UNL1        0.0047
     13 C         -26.7770   12.0610    5.0020 C.ar    1  UNL1        0.0193
     14 C         -26.6570   10.7840    5.5750 C.ar    1  UNL1        0.0842
     15 C         -27.6760   10.2860    6.3550 C.ar    1  UNL1        0.0530
     16 N         -25.6510    9.8270    5.5270 N.ar    1  UNL1       -0.2453
     17 C         -26.0580    8.7360    6.2830 C.ar    1  UNL1        0.0814
     18 C         -27.3060    9.0160    6.7940 C.ar    1  UNL1        0.0220
     19 C         -25.4420    7.5080    6.5740 C.ar    1  UNL1        0.0191
     20 C         -26.0930    6.5790    7.3760 C.ar    1  UNL1        0.0015
     21 C         -27.3540    6.8620    7.8930 C.ar    1  UNL1        0.0001
     22 C         -27.9630    8.0770    7.6050 C.ar    1  UNL1        0.0016
@<TRIPOS>BOND
     1     2     1    1
     2     3     2    1
     3     4     3    1
     4     5     4    1
     5     5     6    1
     6     7     5    1
     7     8     2    1
     8     9     8    1
     9    10     9    1
    10    11    10   ar
    11    12    11   ar
    12    13    12   ar
    13    14    13   ar
    14    15    10   ar
    15    15    14   ar
    16    16    14   ar
    17    17    16   ar
    18    18    15   ar
    19    18    17   ar
    20    19    17   ar
    21    20    19   ar
    22    21    20   ar
    23    22    21   ar
    24    22    18   ar
