@<TRIPOS>MOLECULE
6PS3_CVD_A1201
 30 33 0 0 0
SMALL
GASTEIGER

@<TRIPOS>ATOM
      1 O         -33.6140   10.5690    8.4340 O.3     1  UNL1       -0.2176
      2 C         -32.4520    9.8630    8.0990 C.3     1  UNL1        0.2126
      3 C         -31.4870   10.7960    7.3750 C.3     1  UNL1        0.2395
      4 O         -30.1720   10.3780    7.6450 O.3     1  UNL1       -0.4726
      5 C         -29.1220   10.9170    6.8720 C.ar    1  UNL1        0.1401
      6 C         -29.1590   12.1500    6.3660 C.ar    1  UNL1        0.0370
      7 C         -27.9630   12.7040    5.5670 C.ar    1  UNL1        0.0047
      8 C         -26.8790   11.9590    5.3810 C.ar    1  UNL1        0.0193
      9 C         -26.8190   10.5550    5.9770 C.ar    1  UNL1        0.0842
     10 C         -27.8540   10.0780    6.6790 C.ar    1  UNL1        0.0530
     11 C         -27.4490    8.6080    7.1250 C.ar    1  UNL1        0.0220
     12 C         -28.1670    7.5190    7.9270 C.ar    1  UNL1        0.0016
     13 C         -27.5700    6.3460    8.1100 C.ar    1  UNL1        0.0001
     14 C         -26.1500    6.1070    7.5690 C.ar    1  UNL1        0.0015
     15 C         -25.5420    7.0380    6.8500 C.ar    1  UNL1        0.0191
     16 C         -26.2190    8.3900    6.6350 C.ar    1  UNL1        0.0814
     17 N         -25.8520    9.5510    5.9520 N.ar    1  UNL1       -0.2453
     18 C         -32.7740    8.6680    7.1920 C.3     1  UNL1        0.1255
     19 N         -33.8140    7.8600    7.7930 N.3     1  UNL1       -0.2113
     20 C         -34.0640    6.6570    7.0270 C.3     1  UNL1        0.1360
     21 C         -35.4600    6.1240    7.3710 C.3     1  UNL1        0.2243
     22 O         -35.6260    6.0940    8.7650 O.3     1  UNL1       -0.4708
     23 C         -36.8590    5.6390    9.2680 C.ar    1  UNL1        0.1723
     24 C         -37.7300    6.5250    9.7500 C.ar    1  UNL1        0.0400
     25 C         -39.0710    6.0590   10.3330 C.ar    1  UNL1        0.0033
     26 C         -39.3500    4.7640   10.3780 C.ar    1  UNL1        0.0033
     27 C         -38.3450    3.7340    9.8380 C.ar    1  UNL1        0.0400
     28 C         -37.1690    4.1220    9.3500 C.ar    1  UNL1        0.1724
     29 O         -36.2750    3.1510    8.8340 O.3     1  UNL1       -0.4684
     30 C         -35.1100    2.8680    9.5740 C.3     1  UNL1        0.2526
@<TRIPOS>BOND
     1     2     1    1
     2     3     2    1
     3     4     3    1
     4     5     4    1
     5     6     5   ar
     6     7     6   ar
     7     8     7   ar
     8     9     8   ar
     9    10     5   ar
    10    10     9   ar
    11    11    10   ar
    12    12    11   ar
    13    13    12   ar
    14    14    13   ar
    15    15    14   ar
    16    16    11   ar
    17    16    15   ar
    18    17    16   ar
    19    17     9   ar
    20    18     2    1
    21    19    18    1
    22    20    19    1
    23    21    20    1
    24    22    21    1
    25    23    22    1
    26    24    23   ar
    27    25    24   ar
    28    26    25   ar
    29    27    26   ar
    30    28    27   ar
    31    28    23   ar
    32    29    28    1
    33    30    29    1
