@<TRIPOS>MOLECULE
9RKF_A1JHU_A520
 53 54 0 0 0
SMALL
GASTEIGER

@<TRIPOS>ATOM
      1  C16      -27.6000   12.4630    5.2990 C.ar  520  A1J520     -0.0582
      2  C13      -27.7190    9.9730    6.5060 C.ar  520  A1J520      0.1276
      3  C10      -28.4430    5.1140    9.0600 C.ar  520  A1J520     -0.0384
      4  C14      -28.7890   10.8560    6.6300 C.ar  520  A1J520      0.1476
      5  C18      -26.6050   10.3260    5.7790 C.ar  520  A1J520     -0.0309
      6  C26      -32.6590    5.8970    8.3160 C.3   520  A1J520     -0.0499
      7  C25      -33.4250    6.9270    7.4890 C.3   520  A1J520      0.0021
      8  C23      -32.3920    9.0720    7.3410 C.3   520  A1J520      0.0254
      9  C01      -29.0720    0.8980   10.5660 C.3   520  A1J520      0.0125
     10  C02      -28.9440    2.2410    9.8610 C.2   520  A1J520      0.2141
     11  C05      -27.4560    4.1350    9.0090 C.ar  520  A1J520      0.0335
     12  C06      -26.2810    4.3890    8.3090 C.ar  520  A1J520     -0.0384
     13  C07      -26.0990    5.6060    7.6670 C.ar  520  A1J520     -0.0328
     14  C08      -27.0900    6.5730    7.7250 C.ar  520  A1J520      0.0863
     15  C09      -28.2590    6.3290    8.4200 C.ar  520  A1J520     -0.0328
     16  C15      -28.7230   12.1000    6.0300 C.ar  520  A1J520     -0.0178
     17  C17      -26.5480   11.5760    5.1710 C.ar  520  A1J520     -0.0595
     18  C20      -31.0830   11.1670    7.2330 C.3   520  A1J520      0.1167
     19  C21      -32.1730   10.4200    8.0040 C.3   520  A1J520      0.1015
     20  C27      -34.9030    6.5740    7.3790 C.3   520  A1J520     -0.0499
     21  N04      -27.6340    2.8560    9.6800 N.am  520  A1J520     -0.2857
     22  N11      -26.9190    7.8500    7.0570 N.2   520  A1J520     -0.1492
     23  N12      -27.8070    8.6750    7.1380 N.2   520  A1J520     -0.1456
     24  N24      -33.3140    8.2640    8.1070 N.3   520  A1J520     -0.3112
     25  O03      -29.9280    2.7610    9.4640 O.2   520  A1J520     -0.2758
     26  O19      -29.9110   10.4530    7.3910 O.3   520  A1J520     -0.4872
     27  O22      -33.3750   11.1480    7.9760 O.3   520  A1J520     -0.3872
     28 H161      -27.5480   13.4380    4.8310 H     520  A1J520      0.0619
     29 H101      -29.3600    4.9240    9.6050 H     520  A1J520      0.0637
     30 H181      -25.7780    9.6350    5.6810 H     520  A1J520      0.0640
     31 H262      -32.8400    4.9040    7.9150 H     520  A1J520      0.0245
     32 H261      -32.9950    5.9380    9.3480 H     520  A1J520      0.0245
     33 H263      -31.5960    6.1160    8.2730 H     520  A1J520      0.0245
     34 H251      -32.9800    6.9570    6.5030 H     520  A1J520      0.0455
     35 H232      -31.4410    8.5540    7.2660 H     520  A1J520      0.0450
     36 H231      -32.7950    9.2260    6.3460 H     520  A1J520      0.0450
     37 H012      -30.0240    0.4440   10.3080 H     520  A1J520      0.0323
     38 H011      -29.0200    1.0470   11.6400 H     520  A1J520      0.0323
     39 H013      -28.2630    0.2460   10.2500 H     520  A1J520      0.0323
     40 H061      -25.5060    3.6350    8.2640 H     520  A1J520      0.0637
     41 H071      -25.1840    5.8000    7.1220 H     520  A1J520      0.0640
     42 H091      -29.0310    7.0890    8.4650 H     520  A1J520      0.0640
     43 H151      -29.5490   12.7930    6.1300 H     520  A1J520      0.0655
     44 H171      -25.6750   11.8560    4.5940 H     520  A1J520      0.0618
     45 H202      -31.3450   11.2230    6.1810 H     520  A1J520      0.0723
     46 H201      -30.9640   12.1680    7.6340 H     520  A1J520      0.0723
     47 H211      -31.8660   10.2950    9.0350 H     520  A1J520      0.0640
     48 H271      -35.3570    6.6030    8.3650 H     520  A1J520      0.0245
     49 H272      -35.0070    5.5770    6.9610 H     520  A1J520      0.0245
     50 H273      -35.3990    7.2920    6.7310 H     520  A1J520      0.0245
     51 H041      -26.8260    2.3790   10.0320 H     520  A1J520      0.1548
     52  H1       -32.9770    8.1700    9.0450 H     520  A1J520      0.1223
     53 H221      -33.2120   12.0300    8.2730 H     520  A1J520      0.2100
@<TRIPOS>BOND
     1    44    17    1
     2    28     1    1
     3    17     1   ar
     4    17     5   ar
     5     1    16   ar
     6    30     5    1
     7     5     2   ar
     8    16    43    1
     9    16     4   ar
    10    45    18    1
    11    36     8    1
    12    34     7    1
    13     2     4   ar
    14     2    23    1
    15     4    26    1
    16    50    20    1
    17    49    20    1
    18    22    23    2
    19    22    14    1
    20    41    13    1
    21    18    26    1
    22    18    46    1
    23    18    19    1
    24    35     8    1
    25     8    19    1
    26     8    24    1
    27    20     7    1
    28    20    48    1
    29     7    24    1
    30     7     6    1
    31    13    14   ar
    32    13    12   ar
    33    14    15   ar
    34    31     6    1
    35    27    19    1
    36    27    53    1
    37    19    47    1
    38    24    52    1
    39    40    12    1
    40    33     6    1
    41    12    11   ar
    42     6    32    1
    43    15    42    1
    44    15     3   ar
    45    11     3   ar
    46    11    21    1
    47     3    29    1
    48    25    10    2
    49    21    10   am
    50    21    51    1
    51    10     9    1
    52    39     9    1
    53    37     9    1
    54     9    38    1
