@<TRIPOS>MOLECULE
2WNL_AN4_J300
 12 13 0 0 0
SMALL
GASTEIGER

@<TRIPOS>ATOM
      1 N         166.4920  122.7850  183.1790 N.2     1  UNL1       -0.2747
      2 C         166.0180  123.7160  182.1640 C.3     1  UNL1        0.1251
      3 C         166.1250  123.0290  180.8100 C.3     1  UNL1        0.0267
      4 C         166.0170  121.5260  180.9770 C.3     1  UNL1        0.0083
      5 C         167.1400  121.0030  181.8630 C.3     1  UNL1        0.0455
      6 C         167.3680  121.9040  183.0330 C.2     1  UNL1        0.0551
      7 N         170.4750  122.7390  184.9340 N.ar    1  UNL1       -0.2423
      8 C         168.7880  120.5920  184.6360 C.ar    1  UNL1        0.0043
      9 C         169.8900  120.5110  185.4810 C.ar    1  UNL1        0.0207
     10 C         170.7310  121.6100  185.6160 C.ar    1  UNL1        0.0989
     11 C         169.4170  122.8370  184.1150 C.ar    1  UNL1        0.1000
     12 C         168.5480  121.7680  183.9470 C.ar    1  UNL1        0.0323
@<TRIPOS>BOND
     1     2     1    1
     2     3     2    1
     3     4     3    1
     4     5     4    1
     5     6     5    1
     6     6     1    2
     7     9     8   ar
     8    10     7   ar
     9    10     9   ar
    10    11     7   ar
    11    12     8   ar
    12    12     6    1
    13    12    11   ar
