@<TRIPOS>MOLECULE
4ZRU_TI9_E301
 25 26 0 0 0
SMALL
GASTEIGER

@<TRIPOS>ATOM
      1  C13      166.9480  121.7560  184.8030 C.3   301  TI9301     -0.0251
      2  C12      167.3450  123.1890  184.5730 C.3   301  TI9301     -0.0381
      3  C11      166.6630  123.9370  185.6540 C.3   301  TI9301     -0.0030
      4  N10      166.3180  122.9810  186.6720 N.3   301  TI9301     -0.3031
      5  C9       166.9230  121.7430  186.2790 C.3   301  TI9301      0.0702
      6  C8       168.2830  121.7400  186.9020 C.1   301  TI9301     -0.0782
      7  C7       169.3480  121.8600  187.4260 C.1   301  TI9301     -0.0632
      8  C5       170.6470  122.1320  188.1260 C.ar  301  TI9301      0.0430
      9  C6       171.5530  121.1350  188.4430 C.ar  301  TI9301     -0.0434
     10  C1       172.7320  121.5260  189.0930 C.ar  301  TI9301     -0.0424
     11  C4       170.9030  123.4380  188.4240 C.ar  301  TI9301      0.0429
     12  N3       172.0320  123.7750  189.0370 N.ar  301  TI9301     -0.2620
     13  C2       172.9360  122.8380  189.3680 C.ar  301  TI9301      0.0276
     14 H131      166.0530  121.5630  184.4230 H     301  TI9301      0.0290
     15 H132      167.6310  121.1390  184.4520 H     301  TI9301      0.0290
     16 H121      167.0380  123.4940  183.7000 H     301  TI9301      0.0278
     17 H122      168.3110  123.2860  184.6520 H     301  TI9301      0.0278
     18 H112      165.8490  124.3340  185.2960 H     301  TI9301      0.0424
     19 H111      167.2410  124.6300  186.0190 H     301  TI9301      0.0424
     20 HN10      165.3890  123.0560  186.7510 H     301  TI9301      0.1231
     21  H14      166.3670  121.0060  186.6150 H     301  TI9301      0.0597
     22  H6       171.3720  120.1920  188.2310 H     301  TI9301      0.0631
     23  H1       173.4000  120.8630  189.3350 H     301  TI9301      0.0633
     24  H4       170.2550  124.1220  188.1930 H     301  TI9301      0.0842
     25  H2       173.7820  123.1160  189.8250 H     301  TI9301      0.0829
@<TRIPOS>BOND
     1    16     2    1
     2    14     1    1
     3    15     1    1
     4     2    17    1
     5     2     1    1
     6     2     3    1
     7     1     5    1
     8    18     3    1
     9     3    19    1
    10     3     4    1
    11     5    21    1
    12     5     4    1
    13     5     6    1
    14     4    20    1
    15     6     7    3
    16     7     8    1
    17     8    11   ar
    18     8     9   ar
    19    24    11    1
    20    22     9    1
    21    11    12   ar
    22     9    10   ar
    23    12    13   ar
    24    10    23    1
    25    10    13   ar
    26    13    25    1
