@<TRIPOS>MOLECULE
7NDP_U8T_G302
 17 19 0 0 0
SMALL
GASTEIGER

@<TRIPOS>ATOM
      1 O         167.1950  122.2220  182.2610 O.2     1  UNL1       -0.2911
      2 C         167.8810  121.9920  183.2670 C.2     1  UNL1        0.1795
      3 C         169.3180  121.6760  183.2170 C.ar    1  UNL1        0.0692
      4 C         167.2950  122.0140  184.6200 C.3     1  UNL1        0.1092
      5 C         168.3270  122.1510  185.7700 C.3     1  UNL1        0.1431
      6 C         167.5680  121.7370  186.9950 C.3     1  UNL1        0.0593
      7 C         166.2510  122.5040  187.0330 C.3     1  UNL1        0.0923
      8 N         166.3390  123.9070  186.5580 N.3     1  UNL1       -0.2178
      9 C         167.6050  124.4820  186.0200 C.3     1  UNL1        0.0923
     10 C         168.8230  123.5650  186.0280 C.3     1  UNL1        0.0593
     11 O         169.5030  121.3620  185.6470 O.3     1  UNL1       -0.4820
     12 C         170.1250  121.3700  184.4350 C.ar    1  UNL1        0.1409
     13 C         171.4850  121.1030  184.3110 C.ar    1  UNL1        0.0375
     14 C         172.0450  121.1250  183.0240 C.ar    1  UNL1        0.0098
     15 C         171.2400  121.4170  181.9070 C.ar    1  UNL1        0.0349
     16 BR        171.8020  121.4870  180.1270 Br      1  UNL1       -0.0490
     17 C         169.9010  121.6880  181.9940 C.ar    1  UNL1        0.0126
@<TRIPOS>BOND
     1     2     1    2
     2     3     2    1
     3     4     2    1
     4     5     4    1
     5     6     5    1
     6     7     6    1
     7     8     7    1
     8     9     8    1
     9    10     9    1
    10    10     5    1
    11    11     5    1
    12    12     3   ar
    13    12    11    1
    14    13    12   ar
    15    14    13   ar
    16    15    14   ar
    17    16    15    1
    18    17    15   ar
    19    17     3   ar
