@<TRIPOS>MOLECULE
7NDV_U8Q_C301
 17 18 0 0 0
SMALL
GASTEIGER

@<TRIPOS>ATOM
      1 F         160.4540  124.1100  179.4020 F       1  UNL1       -0.1659
      2 C         161.4340  123.3310  178.9400 C.3     1  UNL1        0.4186
      3 F         161.8840  123.9030  177.8220 F       1  UNL1       -0.1659
      4 F         160.8240  122.1940  178.5800 F       1  UNL1       -0.1659
      5 C         162.5300  123.1140  179.9350 C.ar    1  UNL1        0.0716
      6 C         163.3910  122.0390  179.7870 C.ar    1  UNL1        0.0070
      7 C         164.3860  121.8130  180.7240 C.ar    1  UNL1        0.0368
      8 C         164.5230  122.6830  181.8010 C.ar    1  UNL1        0.1384
      9 O         165.5340  122.4200  182.6810 O.3     1  UNL1       -0.4791
     10 C         165.7010  123.2360  183.8940 C.3     1  UNL1        0.1688
     11 C         165.3730  122.3870  185.0970 C.3     1  UNL1        0.0623
     12 C         165.9040  123.0440  186.3370 C.3     1  UNL1        0.0924
     13 N         167.3770  123.1050  186.3350 N.3     1  UNL1       -0.2178
     14 C         167.9810  123.1490  184.9960 C.3     1  UNL1        0.0924
     15 C         167.1240  123.7610  183.9150 C.3     1  UNL1        0.0623
     16 C         163.6700  123.7650  181.9550 C.ar    1  UNL1        0.0368
     17 C         162.6710  123.9740  181.0190 C.ar    1  UNL1        0.0070
@<TRIPOS>BOND
     1     2     1    1
     2     3     2    1
     3     4     2    1
     4     5     2    1
     5     6     5   ar
     6     7     6   ar
     7     8     7   ar
     8     9     8    1
     9    10     9    1
    10    11    10    1
    11    12    11    1
    12    13    12    1
    13    14    13    1
    14    15    14    1
    15    15    10    1
    16    16     8   ar
    17    17     5   ar
    18    17    16   ar
