Z4912279979
     RDKit          3D

 47 50  0  0  0  0  0  0  0  0999 V2000
    2.5159    3.1315    0.7566 N   0  0  0  0  0  0  0  0  0  0  0  0
    2.7272    2.9091   -0.8880 S   0  0  0  0  0  0  0  0  0  0  0  0
    3.9411    3.6020   -1.2483 O   0  0  0  0  0  0  0  0  0  0  0  0
    1.4531    3.2064   -1.5105 O   0  0  0  0  0  0  0  0  0  0  0  0
    3.0092    1.1648   -0.9735 C   0  0  0  0  0  0  0  0  0  0  0  0
    4.2991    0.6409   -0.9566 C   0  0  0  0  0  0  0  0  0  0  0  0
    4.4690   -0.7444   -1.0121 C   0  0  0  0  0  0  0  0  0  0  0  0
    3.3566   -1.5967   -1.0818 C   0  0  0  0  0  0  0  0  0  0  0  0
    2.0525   -1.0813   -1.1061 C   0  0  0  0  0  0  0  0  0  0  0  0
    1.9038    0.3182   -1.0742 C   0  0  0  0  0  0  0  0  0  0  0  0
    0.8501   -1.9349   -1.1486 C   0  0  0  0  0  0  0  0  0  0  0  0
    0.7270   -3.0479   -1.9768 C   0  0  0  0  0  0  0  0  0  0  0  0
   -0.4854   -3.7522   -2.0440 C   0  0  0  0  0  0  0  0  0  0  0  0
   -0.2699   -1.5904   -0.3762 C   0  0  0  0  0  0  0  0  0  0  0  0
   -1.5252   -2.2292   -0.4990 C   0  0  0  0  0  0  0  0  0  0  0  0
   -1.6154   -3.3583   -1.3350 C   0  0  0  0  0  0  0  0  0  0  0  0
   -2.7038   -1.7771    0.1615 C   0  0  0  0  0  0  0  0  0  0  0  0
   -3.8778   -2.5165   -0.0070 C   0  0  0  0  0  0  0  0  0  0  0  0
   -3.8497   -3.6318   -0.8216 C   0  0  0  0  0  0  0  0  0  0  0  0
   -2.7538   -4.0541   -1.4845 N   0  0  0  0  0  0  0  0  0  0  0  0
   -2.7307   -0.5359    0.9700 C   0  0  0  0  0  0  0  0  0  0  0  0
   -3.0990   -0.5583    2.3253 C   0  0  0  0  0  0  0  0  0  0  0  0
   -3.0474    0.6017    3.1062 C   0  0  0  0  0  0  0  0  0  0  0  0
   -2.6040    1.8015    2.5515 C   0  0  0  0  0  0  0  0  0  0  0  0
   -2.2371    1.8415    1.2050 C   0  0  0  0  0  0  0  0  0  0  0  0
   -2.3386    0.6962    0.4094 C   0  0  0  0  0  0  0  0  0  0  0  0
   -1.5772    3.3547    0.5635 S   0  0  0  0  0  0  0  0  0  0  0  0
   -0.2547    3.5319    1.1263 O   0  0  0  0  0  0  0  0  0  0  0  0
   -2.6038    4.3657    0.6538 O   0  0  0  0  0  0  0  0  0  0  0  0
   -1.3467    3.0738   -1.0739 N   0  0  0  0  0  0  0  0  0  0  0  0
    3.2074    3.7792    1.1328 H   0  0  0  0  0  0  0  0  0  0  0  0
    1.5430    3.3969    0.9802 H   0  0  0  0  0  0  0  0  0  0  0  0
    5.1661    1.2942   -0.8920 H   0  0  0  0  0  0  0  0  0  0  0  0
    5.4712   -1.1684   -0.9888 H   0  0  0  0  0  0  0  0  0  0  0  0
    3.5230   -2.6728   -1.0991 H   0  0  0  0  0  0  0  0  0  0  0  0
    0.9083    0.7575   -1.1220 H   0  0  0  0  0  0  0  0  0  0  0  0
    1.5552   -3.3699   -2.6033 H   0  0  0  0  0  0  0  0  0  0  0  0
   -0.5601   -4.6165   -2.7000 H   0  0  0  0  0  0  0  0  0  0  0  0
   -0.1612   -0.7728    0.3333 H   0  0  0  0  0  0  0  0  0  0  0  0
   -4.8073   -2.2189    0.4671 H   0  0  0  0  0  0  0  0  0  0  0  0
   -4.7429   -4.2295   -0.9812 H   0  0  0  0  0  0  0  0  0  0  0  0
   -3.4067   -1.4919    2.7933 H   0  0  0  0  0  0  0  0  0  0  0  0
   -3.3304    0.5609    4.1561 H   0  0  0  0  0  0  0  0  0  0  0  0
   -2.5359    2.6936    3.1714 H   0  0  0  0  0  0  0  0  0  0  0  0
   -2.0676    0.7385   -0.6441 H   0  0  0  0  0  0  0  0  0  0  0  0
   -1.9306    3.7060   -1.6231 H   0  0  0  0  0  0  0  0  0  0  0  0
   -0.3468    3.1745   -1.3192 H   0  0  0  0  0  0  0  0  0  0  0  0
  1  2  1  0
  2  3  2  0
  2  4  2  0
  2  5  1  0
  5  6  2  0
  6  7  1  0
  7  8  2  0
  8  9  1  0
  9 10  2  0
  9 11  1  0
 11 12  2  0
 12 13  1  0
 11 14  1  0
 14 15  2  0
 15 16  1  0
 15 17  1  0
 17 18  2  0
 18 19  1  0
 19 20  2  0
 17 21  1  0
 21 22  2  0
 22 23  1  0
 23 24  2  0
 24 25  1  0
 25 26  2  0
 25 27  1  0
 27 28  2  0
 27 29  2  0
 27 30  1  0
 10  5  1  0
 16 13  2  0
 20 16  1  0
 26 21  1  0
  1 31  1  0
  1 32  1  0
  6 33  1  0
  7 34  1  0
  8 35  1  0
 10 36  1  0
 12 37  1  0
 13 38  1  0
 14 39  1  0
 18 40  1  0
 19 41  1  0
 22 42  1  0
 23 43  1  0
 24 44  1  0
 26 45  1  0
 30 46  1  0
 30 47  1  0
M  END
>  <mol_id>  (1) 
Z4912279979

>  <drugclip_rank>  (1) 
1

>  <conformer>  (1) 
0

>  <align_rmsd>  (1) 
0.755

$$$$
D266-0160
     RDKit          3D

 50 53  0  0  0  0  0  0  0  0999 V2000
   -1.1708   -2.3868   -1.9457 C   0  0  0  0  0  0  0  0  0  0  0  0
   -1.5569   -3.6948   -1.6524 C   0  0  0  0  0  0  0  0  0  0  0  0
   -1.0972   -4.3155   -0.4862 C   0  0  0  0  0  0  0  0  0  0  0  0
   -0.2384   -3.6366    0.3811 C   0  0  0  0  0  0  0  0  0  0  0  0
    0.1530   -2.3286    0.0916 C   0  0  0  0  0  0  0  0  0  0  0  0
   -0.3334   -1.6997   -1.0603 C   0  0  0  0  0  0  0  0  0  0  0  0
    0.0514   -0.3042   -1.3835 C   0  0  0  0  0  0  0  0  0  0  0  0
    0.7833   -0.1234   -2.4392 N   0  0  0  0  0  0  0  0  0  0  0  0
    1.1162    1.1525   -2.7424 N   0  0  0  0  0  0  0  0  0  0  0  0
    0.6961    2.2639   -2.0689 C   0  0  0  0  0  0  0  0  0  0  0  0
    0.9186    3.3936   -2.4986 O   0  0  0  0  0  0  0  0  0  0  0  0
   -0.4528    0.7922   -0.4857 C   0  0  0  0  0  0  0  0  0  0  0  0
   -1.3923    0.4962    0.6171 C   0  0  0  0  0  0  0  0  0  0  0  0
   -0.9428    0.3534    1.9369 C   0  0  0  0  0  0  0  0  0  0  0  0
   -1.8450    0.0541    2.9595 C   0  0  0  0  0  0  0  0  0  0  0  0
   -3.2004   -0.1054    2.6726 C   0  0  0  0  0  0  0  0  0  0  0  0
   -3.6578    0.0406    1.3642 C   0  0  0  0  0  0  0  0  0  0  0  0
   -2.7585    0.3429    0.3384 C   0  0  0  0  0  0  0  0  0  0  0  0
   -0.0865    2.0473   -0.8255 C   0  0  0  0  0  0  0  0  0  0  0  0
   -0.5167    3.2298   -0.0082 C   0  0  0  0  0  0  0  0  0  0  0  0
   -0.4448    3.2038    1.2162 O   0  0  0  0  0  0  0  0  0  0  0  0
   -0.9403    4.3073   -0.7640 N   0  0  0  0  0  0  0  0  0  0  0  0
   -1.5553    5.4878   -0.3021 C   0  0  0  0  0  0  0  0  0  0  0  0
   -1.9973    5.6689    1.0112 C   0  0  0  0  0  0  0  0  0  0  0  0
   -2.6293    6.8580    1.3899 C   0  0  0  0  0  0  0  0  0  0  0  0
   -1.7644    6.5108   -1.2397 C   0  0  0  0  0  0  0  0  0  0  0  0
   -2.3948    7.7027   -0.8711 C   0  0  0  0  0  0  0  0  0  0  0  0
   -2.8160    7.8721    0.4484 C   0  0  0  0  0  0  0  0  0  0  0  0
   -3.6205    9.3740    0.9385 S   0  0  0  0  0  0  0  0  0  0  0  0
   -4.5408    9.0751    2.0099 O   0  0  0  0  0  0  0  0  0  0  0  0
   -4.0193   10.0902   -0.2515 O   0  0  0  0  0  0  0  0  0  0  0  0
   -2.3319   10.2484    1.5817 N   0  0  0  0  0  0  0  0  0  0  0  0
   -1.5202   -1.9076   -2.8578 H   0  0  0  0  0  0  0  0  0  0  0  0
   -2.2148   -4.2329   -2.3307 H   0  0  0  0  0  0  0  0  0  0  0  0
   -1.4028   -5.3340   -0.2569 H   0  0  0  0  0  0  0  0  0  0  0  0
    0.1255   -4.1287    1.2837 H   0  0  0  0  0  0  0  0  0  0  0  0
    0.8337   -1.8119    0.7639 H   0  0  0  0  0  0  0  0  0  0  0  0
    1.6419    1.2904   -3.6022 H   0  0  0  0  0  0  0  0  0  0  0  0
    0.1080    0.4938    2.1806 H   0  0  0  0  0  0  0  0  0  0  0  0
   -1.4905   -0.0450    3.9821 H   0  0  0  0  0  0  0  0  0  0  0  0
   -3.9018   -0.3356    3.4712 H   0  0  0  0  0  0  0  0  0  0  0  0
   -4.7156   -0.0791    1.1421 H   0  0  0  0  0  0  0  0  0  0  0  0
   -3.1342    0.4511   -0.6770 H   0  0  0  0  0  0  0  0  0  0  0  0
   -0.6917    4.2901   -1.7489 H   0  0  0  0  0  0  0  0  0  0  0  0
   -1.8796    4.8936    1.7643 H   0  0  0  0  0  0  0  0  0  0  0  0
   -2.9800    6.9753    2.4147 H   0  0  0  0  0  0  0  0  0  0  0  0
   -1.4400    6.3906   -2.2705 H   0  0  0  0  0  0  0  0  0  0  0  0
   -2.5581    8.4799   -1.6162 H   0  0  0  0  0  0  0  0  0  0  0  0
   -1.4822    9.6939    1.6848 H   0  0  0  0  0  0  0  0  0  0  0  0
   -2.1752   11.0754    1.0016 H   0  0  0  0  0  0  0  0  0  0  0  0
  1  2  2  0
  2  3  1  0
  3  4  2  0
  4  5  1  0
  5  6  2  0
  6  7  1  0
  7  8  2  0
  8  9  1  0
  9 10  1  0
 10 11  2  0
  7 12  1  0
 12 13  1  0
 13 14  2  0
 14 15  1  0
 15 16  2  0
 16 17  1  0
 17 18  2  0
 12 19  2  0
 19 20  1  0
 20 21  2  0
 20 22  1  0
 22 23  1  0
 23 24  2  0
 24 25  1  0
 23 26  1  0
 26 27  2  0
 27 28  1  0
 28 29  1  0
 29 30  2  0
 29 31  2  0
 29 32  1  0
  6  1  1  0
 19 10  1  0
 18 13  1  0
 28 25  2  0
  1 33  1  0
  2 34  1  0
  3 35  1  0
  4 36  1  0
  5 37  1  0
  9 38  1  0
 14 39  1  0
 15 40  1  0
 16 41  1  0
 17 42  1  0
 18 43  1  0
 22 44  1  0
 24 45  1  0
 25 46  1  0
 26 47  1  0
 27 48  1  0
 32 49  1  0
 32 50  1  0
M  END
>  <mol_id>  (2) 
D266-0160

>  <drugclip_rank>  (2) 
2

>  <conformer>  (2) 
7

>  <align_rmsd>  (2) 
0.804

$$$$
MCULE-4193810350
     RDKit          3D

 50 53  0  0  0  0  0  0  0  0999 V2000
    0.9794    3.7736    0.2393 C   0  0  0  0  0  0  0  0  0  0  0  0
    0.6088    3.7440   -1.0439 N   0  0  0  0  0  0  0  0  0  0  0  0
   -0.6762    4.0215   -1.3178 C   0  0  0  0  0  0  0  0  0  0  0  0
   -1.6010    4.3321   -0.3546 C   0  0  0  0  0  0  0  0  0  0  0  0
   -1.1431    4.3474    0.9497 C   0  0  0  0  0  0  0  0  0  0  0  0
    0.1518    4.0691    1.2474 N   0  0  0  0  0  0  0  0  0  0  0  0
   -2.0324    4.6740    2.0900 C   0  0  0  0  0  0  0  0  0  0  0  0
   -1.6052    4.5997    3.4144 C   0  0  0  0  0  0  0  0  0  0  0  0
   -2.5024    4.9193    4.4361 C   0  0  0  0  0  0  0  0  0  0  0  0
   -3.8013    5.3080    4.1202 C   0  0  0  0  0  0  0  0  0  0  0  0
   -4.1496    5.3600    2.7865 C   0  0  0  0  0  0  0  0  0  0  0  0
   -3.3037    5.0533    1.7789 N   0  0  0  0  0  0  0  0  0  0  0  0
   -2.1235    4.8490    5.8669 C   0  0  0  0  0  0  0  0  0  0  0  0
   -0.8256    4.5565    6.0486 O   0  0  0  0  0  0  0  0  0  0  0  0
   -2.8741    5.0375    6.8071 O   0  0  0  0  0  0  0  0  0  0  0  0
    2.2845    3.5135    0.6046 N   0  0  0  0  0  0  0  0  0  0  0  0
    3.3854    3.9037   -0.2760 C   0  0  1  0  0  0  0  0  0  0  0  0
    3.5538    3.0419   -1.5215 C   0  0  0  0  0  0  0  0  0  0  0  0
    4.4076    3.8107   -2.3842 O   0  0  0  0  0  0  0  0  0  0  0  0
    4.0227    5.1881   -2.2195 C   0  0  0  0  0  0  0  0  0  0  0  0
    3.3571    5.3446   -0.8322 C   0  0  2  0  0  0  0  0  0  0  0  0
    3.9562    6.4214   -0.0110 N   0  0  0  0  0  0  0  0  0  0  0  0
    5.3322    6.2068    0.4360 C   0  0  0  0  0  0  0  0  0  0  0  0
    5.9556    7.5534    0.8268 C   0  0  0  0  0  0  0  0  0  0  0  0
    4.9857    8.4736    1.5754 C   0  0  0  0  0  0  0  0  0  0  0  0
    3.8170    7.6907    2.1593 C   0  0  0  0  0  0  0  0  0  0  0  0
    3.0786    6.8881    1.0741 C   0  0  0  0  0  0  0  0  0  0  0  0
   -0.9458    3.9881   -2.3704 H   0  0  0  0  0  0  0  0  0  0  0  0
   -2.6292    4.5522   -0.6110 H   0  0  0  0  0  0  0  0  0  0  0  0
   -0.5903    4.2899    3.6455 H   0  0  0  0  0  0  0  0  0  0  0  0
   -4.5220    5.5626    4.8908 H   0  0  0  0  0  0  0  0  0  0  0  0
   -5.1494    5.6561    2.4800 H   0  0  0  0  0  0  0  0  0  0  0  0
   -0.7119    4.5544    7.0219 H   0  0  0  0  0  0  0  0  0  0  0  0
    2.3811    3.8335    1.5621 H   0  0  0  0  0  0  0  0  0  0  0  0
    4.3069    3.7677    0.3044 H   0  0  0  0  0  0  0  0  0  0  0  0
    4.0404    2.0842   -1.2977 H   0  0  0  0  0  0  0  0  0  0  0  0
    2.6259    2.8331   -2.0625 H   0  0  0  0  0  0  0  0  0  0  0  0
    3.3013    5.4361   -3.0140 H   0  0  0  0  0  0  0  0  0  0  0  0
    4.9071    5.8221   -2.3759 H   0  0  0  0  0  0  0  0  0  0  0  0
    2.3298    5.6685   -1.0438 H   0  0  0  0  0  0  0  0  0  0  0  0
    5.9543    5.7614   -0.3512 H   0  0  0  0  0  0  0  0  0  0  0  0
    5.3678    5.5192    1.2919 H   0  0  0  0  0  0  0  0  0  0  0  0
    6.8389    7.3657    1.4493 H   0  0  0  0  0  0  0  0  0  0  0  0
    6.3135    8.0718   -0.0738 H   0  0  0  0  0  0  0  0  0  0  0  0
    4.5993    9.2294    0.8818 H   0  0  0  0  0  0  0  0  0  0  0  0
    5.5204    9.0152    2.3656 H   0  0  0  0  0  0  0  0  0  0  0  0
    3.1136    8.3668    2.6577 H   0  0  0  0  0  0  0  0  0  0  0  0
    4.1962    7.0058    2.9288 H   0  0  0  0  0  0  0  0  0  0  0  0
    2.2978    7.5217    0.6332 H   0  0  0  0  0  0  0  0  0  0  0  0
    2.5676    6.0608    1.5806 H   0  0  0  0  0  0  0  0  0  0  0  0
  1  2  2  0
  2  3  1  0
  3  4  2  0
  4  5  1  0
  5  6  2  0
  5  7  1  0
  7  8  2  0
  8  9  1  0
  9 10  2  0
 10 11  1  0
 11 12  2  0
  9 13  1  0
 13 14  1  0
 13 15  2  0
  1 16  1  0
 16 17  1  0
 17 18  1  0
 18 19  1  0
 19 20  1  0
 20 21  1  0
 21 22  1  0
 22 23  1  0
 23 24  1  0
 24 25  1  0
 25 26  1  0
 26 27  1  0
  6  1  1  0
 12  7  1  0
 21 17  1  0
 27 22  1  0
  3 28  1  0
  4 29  1  0
  8 30  1  0
 10 31  1  0
 11 32  1  0
 14 33  1  0
 16 34  1  0
 17 35  1  1
 18 36  1  0
 18 37  1  0
 20 38  1  0
 20 39  1  0
 21 40  1  6
 23 41  1  0
 23 42  1  0
 24 43  1  0
 24 44  1  0
 25 45  1  0
 25 46  1  0
 26 47  1  0
 26 48  1  0
 27 49  1  0
 27 50  1  0
M  END
>  <mol_id>  (3) 
MCULE-4193810350

>  <drugclip_rank>  (3) 
3

>  <conformer>  (3) 
23

>  <align_rmsd>  (3) 
0.927

$$$$
OSSM_270778
     RDKit          3D

 52 54  0  0  0  0  0  0  0  0999 V2000
   -4.4570   -0.0755    0.2110 C   0  0  0  0  0  0  0  0  0  0  0  0
   -5.0273    1.1570   -0.1379 C   0  0  0  0  0  0  0  0  0  0  0  0
   -4.5386    2.3441    0.4202 C   0  0  0  0  0  0  0  0  0  0  0  0
   -5.0273    3.5974    0.1611 O   0  0  0  0  0  0  0  0  0  0  0  0
   -5.9714    3.7191   -0.8963 C   0  0  0  0  0  0  0  0  0  0  0  0
   -3.4755    2.2666    1.3339 C   0  0  0  0  0  0  0  0  0  0  0  0
   -2.9478    3.4110    1.8841 O   0  0  0  0  0  0  0  0  0  0  0  0
   -3.5525    3.6549    3.1597 C   0  0  0  0  0  0  0  0  0  0  0  0
   -2.8849    1.0432    1.6617 C   0  0  0  0  0  0  0  0  0  0  0  0
   -3.3877   -0.1412    1.1143 C   0  0  0  0  0  0  0  0  0  0  0  0
   -2.8230   -1.4325    1.4880 C   0  0  0  0  0  0  0  0  0  0  0  0
   -2.8555   -1.8766    2.7884 N   0  0  0  0  0  0  0  0  0  0  0  0
   -2.3629   -3.1111    2.9633 N   0  0  0  0  0  0  0  0  0  0  0  0
   -2.0260   -3.4831    1.7288 C   0  0  0  0  0  0  0  0  0  0  0  0
   -2.2673   -2.4779    0.7589 C   0  0  0  0  0  0  0  0  0  0  0  0
   -1.9783   -2.6015   -0.6603 C   0  0  0  0  0  0  0  0  0  0  0  0
   -1.8142   -3.6938   -1.1915 O   0  0  0  0  0  0  0  0  0  0  0  0
   -1.8342   -1.4157   -1.3452 N   0  0  0  0  0  0  0  0  0  0  0  0
   -1.3568   -1.3834   -2.7141 C   0  0  0  0  0  0  0  0  0  0  0  0
    0.1391   -1.6871   -2.8435 C   0  0  0  0  0  0  0  0  0  0  0  0
    1.0087   -0.6791   -2.1302 C   0  0  0  0  0  0  0  0  0  0  0  0
    1.4895   -0.9489   -0.8392 C   0  0  0  0  0  0  0  0  0  0  0  0
    2.2823   -0.0114   -0.1675 C   0  0  0  0  0  0  0  0  0  0  0  0
    1.3302    0.5431   -2.7411 C   0  0  0  0  0  0  0  0  0  0  0  0
    2.1302    1.4804   -2.0788 C   0  0  0  0  0  0  0  0  0  0  0  0
    2.5985    1.1974   -0.7919 C   0  0  0  0  0  0  0  0  0  0  0  0
    3.6547    2.3611    0.0177 S   0  0  0  0  0  0  0  0  0  0  0  0
    4.0444    1.8409    1.3080 O   0  0  0  0  0  0  0  0  0  0  0  0
    4.6134    2.8617   -0.9417 O   0  0  0  0  0  0  0  0  0  0  0  0
    2.6078    3.6298    0.3491 N   0  0  0  0  0  0  0  0  0  0  0  0
   -4.8624   -0.9865   -0.2267 H   0  0  0  0  0  0  0  0  0  0  0  0
   -5.8573    1.1528   -0.8348 H   0  0  0  0  0  0  0  0  0  0  0  0
   -6.9057    3.2002   -0.6545 H   0  0  0  0  0  0  0  0  0  0  0  0
   -6.2112    4.7796   -1.0108 H   0  0  0  0  0  0  0  0  0  0  0  0
   -5.5529    3.3638   -1.8440 H   0  0  0  0  0  0  0  0  0  0  0  0
   -3.1402    4.5924    3.5576 H   0  0  0  0  0  0  0  0  0  0  0  0
   -3.3129    2.8526    3.8675 H   0  0  0  0  0  0  0  0  0  0  0  0
   -4.6379    3.7723    3.0773 H   0  0  0  0  0  0  0  0  0  0  0  0
   -2.0377    1.0290    2.3421 H   0  0  0  0  0  0  0  0  0  0  0  0
   -3.2219   -1.3901    3.5980 H   0  0  0  0  0  0  0  0  0  0  0  0
   -1.6071   -4.4712    1.5704 H   0  0  0  0  0  0  0  0  0  0  0  0
   -1.7382   -0.5669   -0.8039 H   0  0  0  0  0  0  0  0  0  0  0  0
   -1.5874   -0.3898   -3.1104 H   0  0  0  0  0  0  0  0  0  0  0  0
   -1.9279   -2.1160   -3.2926 H   0  0  0  0  0  0  0  0  0  0  0  0
    0.3635   -2.6925   -2.4644 H   0  0  0  0  0  0  0  0  0  0  0  0
    0.4128   -1.7017   -3.9044 H   0  0  0  0  0  0  0  0  0  0  0  0
    1.2528   -1.8935   -0.3505 H   0  0  0  0  0  0  0  0  0  0  0  0
    2.6594   -0.2423    0.8265 H   0  0  0  0  0  0  0  0  0  0  0  0
    0.9702    0.7668   -3.7438 H   0  0  0  0  0  0  0  0  0  0  0  0
    2.3927    2.4120   -2.5690 H   0  0  0  0  0  0  0  0  0  0  0  0
    2.9066    4.4693   -0.1421 H   0  0  0  0  0  0  0  0  0  0  0  0
    2.5267    3.7588    1.3625 H   0  0  0  0  0  0  0  0  0  0  0  0
  1  2  2  0
  2  3  1  0
  3  4  1  0
  4  5  1  0
  3  6  2  0
  6  7  1  0
  7  8  1  0
  6  9  1  0
  9 10  2  0
 10 11  1  0
 11 12  1  0
 12 13  1  0
 13 14  2  0
 11 15  2  0
 15 16  1  0
 16 17  2  0
 16 18  1  0
 18 19  1  0
 19 20  1  0
 20 21  1  0
 21 22  2  0
 22 23  1  0
 21 24  1  0
 24 25  2  0
 25 26  1  0
 26 27  1  0
 27 28  2  0
 27 29  2  0
 27 30  1  0
 10  1  1  0
 15 14  1  0
 26 23  2  0
  1 31  1  0
  2 32  1  0
  5 33  1  0
  5 34  1  0
  5 35  1  0
  8 36  1  0
  8 37  1  0
  8 38  1  0
  9 39  1  0
 12 40  1  0
 14 41  1  0
 18 42  1  0
 19 43  1  0
 19 44  1  0
 20 45  1  0
 20 46  1  0
 22 47  1  0
 23 48  1  0
 24 49  1  0
 25 50  1  0
 30 51  1  0
 30 52  1  0
M  END
>  <mol_id>  (4) 
OSSM_270778

>  <drugclip_rank>  (4) 
4

>  <conformer>  (4) 
1

>  <align_rmsd>  (4) 
1.29

$$$$
STL191246
     RDKit          3D

 52 55  0  0  0  0  0  0  0  0999 V2000
   -0.2031   -5.8971   -4.1750 C   0  0  0  0  0  0  0  0  0  0  0  0
   -0.0632   -6.2504   -5.5211 C   0  0  0  0  0  0  0  0  0  0  0  0
   -0.7412   -5.5359   -6.5046 C   0  0  0  0  0  0  0  0  0  0  0  0
   -1.5623   -4.4720   -6.1438 C   0  0  0  0  0  0  0  0  0  0  0  0
   -1.7000   -4.1208   -4.7976 C   0  0  0  0  0  0  0  0  0  0  0  0
   -1.0187   -4.8191   -3.7834 C   0  0  0  0  0  0  0  0  0  0  0  0
   -1.1708   -4.4264   -2.3658 C   0  0  0  0  0  0  0  0  0  0  0  0
   -2.4180   -4.0300   -2.0111 N   0  0  0  0  0  0  0  0  0  0  0  0
   -0.0952   -4.4539   -1.4766 C   0  0  0  0  0  0  0  0  0  0  0  0
   -0.2855   -4.0741   -0.1393 C   0  0  0  0  0  0  0  0  0  0  0  0
   -1.5720   -3.6893    0.2668 C   0  0  0  0  0  0  0  0  0  0  0  0
   -2.5480   -3.6941   -0.7165 C   0  0  0  0  0  0  0  0  0  0  0  0
   -2.2551   -3.2372    1.4332 C   0  0  0  0  0  0  0  0  0  0  0  0
   -1.7216   -3.0243    2.8027 C   0  0  0  0  0  0  0  0  0  0  0  0
   -3.5511   -2.9807    1.1891 N   0  0  0  0  0  0  0  0  0  0  0  0
   -3.6972   -3.2795   -0.1144 N   0  0  0  0  0  0  0  0  0  0  0  0
    0.8457   -4.0894    0.8067 C   0  0  0  0  0  0  0  0  0  0  0  0
    0.7067   -4.5188    1.9433 O   0  0  0  0  0  0  0  0  0  0  0  0
    2.0251   -3.5624    0.3239 N   0  0  0  0  0  0  0  0  0  0  0  0
    3.1637   -3.3507    1.2006 C   0  0  0  0  0  0  0  0  0  0  0  0
    3.0054   -2.1186    2.0999 C   0  0  0  0  0  0  0  0  0  0  0  0
    2.8996   -0.8305    1.3132 C   0  0  0  0  0  0  0  0  0  0  0  0
    1.6430   -0.2598    1.0580 C   0  0  0  0  0  0  0  0  0  0  0  0
    1.5369    0.9121    0.3090 C   0  0  0  0  0  0  0  0  0  0  0  0
    2.6948    1.5204   -0.1814 C   0  0  0  0  0  0  0  0  0  0  0  0
    3.9519    0.9597    0.0528 C   0  0  0  0  0  0  0  0  0  0  0  0
    4.0511   -0.2139    0.8018 C   0  0  0  0  0  0  0  0  0  0  0  0
    2.5509    3.0054   -1.1390 S   0  0  0  0  0  0  0  0  0  0  0  0
    3.8202    3.2649   -1.7790 O   0  0  0  0  0  0  0  0  0  0  0  0
    1.3080    2.9560   -1.8701 O   0  0  0  0  0  0  0  0  0  0  0  0
    2.4055    4.1718    0.0666 N   0  0  0  0  0  0  0  0  0  0  0  0
    0.3222   -6.4927   -3.4312 H   0  0  0  0  0  0  0  0  0  0  0  0
    0.5696   -7.0896   -5.7992 H   0  0  0  0  0  0  0  0  0  0  0  0
   -0.6358   -5.8120   -7.5505 H   0  0  0  0  0  0  0  0  0  0  0  0
   -2.0996   -3.9143   -6.9065 H   0  0  0  0  0  0  0  0  0  0  0  0
   -2.3485   -3.2856   -4.5376 H   0  0  0  0  0  0  0  0  0  0  0  0
    0.8865   -4.7717   -1.8143 H   0  0  0  0  0  0  0  0  0  0  0  0
   -1.5108   -3.9837    3.2844 H   0  0  0  0  0  0  0  0  0  0  0  0
   -0.8038   -2.4295    2.7741 H   0  0  0  0  0  0  0  0  0  0  0  0
   -2.4401   -2.4873    3.4314 H   0  0  0  0  0  0  0  0  0  0  0  0
   -4.6061   -3.1756   -0.5475 H   0  0  0  0  0  0  0  0  0  0  0  0
    2.0023   -3.0250   -0.5348 H   0  0  0  0  0  0  0  0  0  0  0  0
    4.0471   -3.2589    0.5599 H   0  0  0  0  0  0  0  0  0  0  0  0
    3.2903   -4.2419    1.8254 H   0  0  0  0  0  0  0  0  0  0  0  0
    3.8664   -2.0495    2.7763 H   0  0  0  0  0  0  0  0  0  0  0  0
    2.1245   -2.2268    2.7447 H   0  0  0  0  0  0  0  0  0  0  0  0
    0.7380   -0.7312    1.4377 H   0  0  0  0  0  0  0  0  0  0  0  0
    0.5556    1.3388    0.1076 H   0  0  0  0  0  0  0  0  0  0  0  0
    4.8532    1.4223   -0.3441 H   0  0  0  0  0  0  0  0  0  0  0  0
    5.0333   -0.6476    0.9819 H   0  0  0  0  0  0  0  0  0  0  0  0
    3.2168    4.7910    0.0261 H   0  0  0  0  0  0  0  0  0  0  0  0
    2.2746    3.7761    0.9969 H   0  0  0  0  0  0  0  0  0  0  0  0
  1  2  2  0
  2  3  1  0
  3  4  2  0
  4  5  1  0
  5  6  2  0
  6  7  1  0
  7  8  2  0
  7  9  1  0
  9 10  2  0
 10 11  1  0
 11 12  2  0
 11 13  1  0
 13 14  1  0
 13 15  2  0
 15 16  1  0
 10 17  1  0
 17 18  2  0
 17 19  1  0
 19 20  1  0
 20 21  1  0
 21 22  1  0
 22 23  2  0
 23 24  1  0
 24 25  2  0
 25 26  1  0
 26 27  2  0
 25 28  1  0
 28 29  2  0
 28 30  2  0
 28 31  1  0
  6  1  1  0
 12  8  1  0
 16 12  1  0
 27 22  1  0
  1 32  1  0
  2 33  1  0
  3 34  1  0
  4 35  1  0
  5 36  1  0
  9 37  1  0
 14 38  1  0
 14 39  1  0
 14 40  1  0
 16 41  1  0
 19 42  1  0
 20 43  1  0
 20 44  1  0
 21 45  1  0
 21 46  1  0
 23 47  1  0
 24 48  1  0
 26 49  1  0
 27 50  1  0
 31 51  1  0
 31 52  1  0
M  END
>  <mol_id>  (5) 
STL191246

>  <drugclip_rank>  (5) 
5

>  <conformer>  (5) 
5

>  <align_rmsd>  (5) 
0.919

$$$$
OSSM_364966
     RDKit          3D

 53 56  0  0  0  0  0  0  0  0999 V2000
    1.8011    4.0491   -1.6264 O   0  0  0  0  0  0  0  0  0  0  0  0
    2.7855    3.1084   -1.1315 S   0  0  0  0  0  0  0  0  0  0  0  0
    4.1519    3.0943   -1.6075 O   0  0  0  0  0  0  0  0  0  0  0  0
    2.8692    3.3775    0.5266 N   0  0  0  0  0  0  0  0  0  0  0  0
    2.1339    1.4695   -1.2187 C   0  0  0  0  0  0  0  0  0  0  0  0
    2.9426    0.3903   -0.8557 C   0  0  0  0  0  0  0  0  0  0  0  0
    2.4407   -0.9097   -0.9549 C   0  0  0  0  0  0  0  0  0  0  0  0
    1.1346   -1.1379   -1.4134 C   0  0  0  0  0  0  0  0  0  0  0  0
    0.3409   -0.0407   -1.7770 C   0  0  0  0  0  0  0  0  0  0  0  0
    0.8345    1.2607   -1.6812 C   0  0  0  0  0  0  0  0  0  0  0  0
    0.6107   -2.5422   -1.5972 C   0  0  0  0  0  0  0  0  0  0  0  0
    0.5213   -3.3976   -0.3224 C   0  0  0  0  0  0  0  0  0  0  0  0
   -0.6955   -3.1931    0.4824 N   0  0  0  0  0  0  0  0  0  0  0  0
   -0.6785   -2.3031    1.6604 C   0  0  0  0  0  0  0  0  0  0  0  0
    0.6501   -2.3438    2.4385 C   0  0  0  0  0  0  0  0  0  0  0  0
   -1.8808   -3.7092   -0.0306 C   0  0  0  0  0  0  0  0  0  0  0  0
   -1.8795   -4.4255   -1.0406 O   0  0  0  0  0  0  0  0  0  0  0  0
   -3.1962   -3.4560    0.6910 C   0  0  0  0  0  0  0  0  0  0  0  0
   -3.9501   -4.7199    1.0711 C   0  0  0  0  0  0  0  0  0  0  0  0
   -5.1076   -4.6864    1.4998 O   0  0  0  0  0  0  0  0  0  0  0  0
   -3.3024   -5.9195    0.9992 N   0  0  0  0  0  0  0  0  0  0  0  0
   -3.1053   -2.5576    1.9328 C   0  0  0  0  0  0  0  0  0  0  0  0
   -1.7745   -2.7374    2.6418 C   0  0  0  0  0  0  0  0  0  0  0  0
   -3.2208   -1.1038    1.5417 C   0  0  0  0  0  0  0  0  0  0  0  0
   -2.0671   -0.3932    1.2029 C   0  0  0  0  0  0  0  0  0  0  0  0
   -0.8177   -0.9459    1.2137 O   0  0  0  0  0  0  0  0  0  0  0  0
   -2.1558    0.9479    0.8325 C   0  0  0  0  0  0  0  0  0  0  0  0
   -3.3995    1.5840    0.7949 C   0  0  0  0  0  0  0  0  0  0  0  0
   -4.5559    0.8765    1.1267 C   0  0  0  0  0  0  0  0  0  0  0  0
   -4.4677   -0.4651    1.4975 C   0  0  0  0  0  0  0  0  0  0  0  0
    3.8394    3.5425    0.7972 H   0  0  0  0  0  0  0  0  0  0  0  0
    2.2342    4.1339    0.7846 H   0  0  0  0  0  0  0  0  0  0  0  0
    3.9619    0.5551   -0.5132 H   0  0  0  0  0  0  0  0  0  0  0  0
    3.0872   -1.7435   -0.6930 H   0  0  0  0  0  0  0  0  0  0  0  0
   -0.6733   -0.1932   -2.1434 H   0  0  0  0  0  0  0  0  0  0  0  0
    0.2040    2.0973   -1.9770 H   0  0  0  0  0  0  0  0  0  0  0  0
    1.2946   -3.0390   -2.2968 H   0  0  0  0  0  0  0  0  0  0  0  0
   -0.3588   -2.5140   -2.1054 H   0  0  0  0  0  0  0  0  0  0  0  0
    0.5035   -4.4479   -0.6429 H   0  0  0  0  0  0  0  0  0  0  0  0
    1.4183   -3.3110    0.2921 H   0  0  0  0  0  0  0  0  0  0  0  0
    0.5736   -1.7617    3.3640 H   0  0  0  0  0  0  0  0  0  0  0  0
    0.9384   -3.3678    2.6989 H   0  0  0  0  0  0  0  0  0  0  0  0
    1.4668   -1.8777    1.8769 H   0  0  0  0  0  0  0  0  0  0  0  0
   -3.8390   -2.9735   -0.0629 H   0  0  0  0  0  0  0  0  0  0  0  0
   -2.6091   -6.0554    0.2640 H   0  0  0  0  0  0  0  0  0  0  0  0
   -3.9033   -6.7242    1.1621 H   0  0  0  0  0  0  0  0  0  0  0  0
   -3.9016   -2.7813    2.6561 H   0  0  0  0  0  0  0  0  0  0  0  0
   -1.7530   -2.1183    3.5500 H   0  0  0  0  0  0  0  0  0  0  0  0
   -1.6407   -3.7827    2.9527 H   0  0  0  0  0  0  0  0  0  0  0  0
   -1.2550    1.5001    0.5757 H   0  0  0  0  0  0  0  0  0  0  0  0
   -3.4653    2.6282    0.5030 H   0  0  0  0  0  0  0  0  0  0  0  0
   -5.5259    1.3699    1.0986 H   0  0  0  0  0  0  0  0  0  0  0  0
   -5.3767   -1.0098    1.7517 H   0  0  0  0  0  0  0  0  0  0  0  0
  1  2  2  0
  2  3  2  0
  2  4  1  0
  2  5  1  0
  5  6  2  0
  6  7  1  0
  7  8  2  0
  8  9  1  0
  9 10  2  0
  8 11  1  0
 11 12  1  0
 12 13  1  0
 13 14  1  0
 14 15  1  0
 13 16  1  0
 16 17  2  0
 16 18  1  0
 18 19  1  0
 19 20  2  0
 19 21  1  0
 18 22  1  0
 22 23  1  0
 22 24  1  0
 24 25  2  0
 25 26  1  0
 25 27  1  0
 27 28  2  0
 28 29  1  0
 29 30  2  0
 10  5  1  0
 26 14  1  0
 23 14  1  0
 30 24  1  0
  4 31  1  0
  4 32  1  0
  6 33  1  0
  7 34  1  0
  9 35  1  0
 10 36  1  0
 11 37  1  0
 11 38  1  0
 12 39  1  0
 12 40  1  0
 15 41  1  0
 15 42  1  0
 15 43  1  0
 18 44  1  0
 21 45  1  0
 21 46  1  0
 22 47  1  0
 23 48  1  0
 23 49  1  0
 27 50  1  0
 28 51  1  0
 29 52  1  0
 30 53  1  0
M  END
>  <mol_id>  (6) 
OSSM_364966

>  <drugclip_rank>  (6) 
6

>  <conformer>  (6) 
33

>  <align_rmsd>  (6) 
0.82

$$$$
STL568539
     RDKit          3D

 53 56  0  0  0  0  0  0  0  0999 V2000
    1.8011    4.0491   -1.6264 O   0  0  0  0  0  0  0  0  0  0  0  0
    2.7855    3.1084   -1.1315 S   0  0  0  0  0  0  0  0  0  0  0  0
    4.1519    3.0943   -1.6075 O   0  0  0  0  0  0  0  0  0  0  0  0
    2.8692    3.3775    0.5266 N   0  0  0  0  0  0  0  0  0  0  0  0
    2.1339    1.4695   -1.2187 C   0  0  0  0  0  0  0  0  0  0  0  0
    2.9426    0.3903   -0.8557 C   0  0  0  0  0  0  0  0  0  0  0  0
    2.4407   -0.9097   -0.9549 C   0  0  0  0  0  0  0  0  0  0  0  0
    1.1346   -1.1379   -1.4134 C   0  0  0  0  0  0  0  0  0  0  0  0
    0.3409   -0.0407   -1.7770 C   0  0  0  0  0  0  0  0  0  0  0  0
    0.8345    1.2607   -1.6812 C   0  0  0  0  0  0  0  0  0  0  0  0
    0.6107   -2.5422   -1.5972 C   0  0  0  0  0  0  0  0  0  0  0  0
    0.5213   -3.3976   -0.3224 C   0  0  0  0  0  0  0  0  0  0  0  0
   -0.6955   -3.1931    0.4824 N   0  0  0  0  0  0  0  0  0  0  0  0
   -0.6785   -2.3031    1.6604 C   0  0  0  0  0  0  0  0  0  0  0  0
    0.6501   -2.3438    2.4385 C   0  0  0  0  0  0  0  0  0  0  0  0
   -1.8808   -3.7092   -0.0306 C   0  0  0  0  0  0  0  0  0  0  0  0
   -1.8795   -4.4255   -1.0406 O   0  0  0  0  0  0  0  0  0  0  0  0
   -3.1962   -3.4560    0.6910 C   0  0  0  0  0  0  0  0  0  0  0  0
   -3.9501   -4.7199    1.0711 C   0  0  0  0  0  0  0  0  0  0  0  0
   -5.1076   -4.6864    1.4998 O   0  0  0  0  0  0  0  0  0  0  0  0
   -3.3024   -5.9195    0.9992 N   0  0  0  0  0  0  0  0  0  0  0  0
   -3.1053   -2.5576    1.9328 C   0  0  0  0  0  0  0  0  0  0  0  0
   -1.7745   -2.7374    2.6418 C   0  0  0  0  0  0  0  0  0  0  0  0
   -3.2208   -1.1038    1.5417 C   0  0  0  0  0  0  0  0  0  0  0  0
   -2.0671   -0.3932    1.2029 C   0  0  0  0  0  0  0  0  0  0  0  0
   -0.8177   -0.9459    1.2137 O   0  0  0  0  0  0  0  0  0  0  0  0
   -2.1558    0.9479    0.8325 C   0  0  0  0  0  0  0  0  0  0  0  0
   -3.3995    1.5840    0.7949 C   0  0  0  0  0  0  0  0  0  0  0  0
   -4.5559    0.8765    1.1267 C   0  0  0  0  0  0  0  0  0  0  0  0
   -4.4677   -0.4651    1.4975 C   0  0  0  0  0  0  0  0  0  0  0  0
    3.8394    3.5425    0.7972 H   0  0  0  0  0  0  0  0  0  0  0  0
    2.2342    4.1339    0.7846 H   0  0  0  0  0  0  0  0  0  0  0  0
    3.9619    0.5551   -0.5132 H   0  0  0  0  0  0  0  0  0  0  0  0
    3.0872   -1.7435   -0.6930 H   0  0  0  0  0  0  0  0  0  0  0  0
   -0.6733   -0.1932   -2.1434 H   0  0  0  0  0  0  0  0  0  0  0  0
    0.2040    2.0973   -1.9770 H   0  0  0  0  0  0  0  0  0  0  0  0
    1.2946   -3.0390   -2.2968 H   0  0  0  0  0  0  0  0  0  0  0  0
   -0.3588   -2.5140   -2.1054 H   0  0  0  0  0  0  0  0  0  0  0  0
    0.5035   -4.4479   -0.6429 H   0  0  0  0  0  0  0  0  0  0  0  0
    1.4183   -3.3110    0.2921 H   0  0  0  0  0  0  0  0  0  0  0  0
    0.5736   -1.7617    3.3640 H   0  0  0  0  0  0  0  0  0  0  0  0
    0.9384   -3.3678    2.6989 H   0  0  0  0  0  0  0  0  0  0  0  0
    1.4668   -1.8777    1.8769 H   0  0  0  0  0  0  0  0  0  0  0  0
   -3.8390   -2.9735   -0.0629 H   0  0  0  0  0  0  0  0  0  0  0  0
   -2.6091   -6.0554    0.2640 H   0  0  0  0  0  0  0  0  0  0  0  0
   -3.9033   -6.7242    1.1621 H   0  0  0  0  0  0  0  0  0  0  0  0
   -3.9016   -2.7813    2.6561 H   0  0  0  0  0  0  0  0  0  0  0  0
   -1.7530   -2.1183    3.5500 H   0  0  0  0  0  0  0  0  0  0  0  0
   -1.6407   -3.7827    2.9527 H   0  0  0  0  0  0  0  0  0  0  0  0
   -1.2550    1.5001    0.5757 H   0  0  0  0  0  0  0  0  0  0  0  0
   -3.4653    2.6282    0.5030 H   0  0  0  0  0  0  0  0  0  0  0  0
   -5.5259    1.3699    1.0986 H   0  0  0  0  0  0  0  0  0  0  0  0
   -5.3767   -1.0098    1.7517 H   0  0  0  0  0  0  0  0  0  0  0  0
  1  2  2  0
  2  3  2  0
  2  4  1  0
  2  5  1  0
  5  6  2  0
  6  7  1  0
  7  8  2  0
  8  9  1  0
  9 10  2  0
  8 11  1  0
 11 12  1  0
 12 13  1  0
 13 14  1  0
 14 15  1  0
 13 16  1  0
 16 17  2  0
 16 18  1  0
 18 19  1  0
 19 20  2  0
 19 21  1  0
 18 22  1  0
 22 23  1  0
 22 24  1  0
 24 25  2  0
 25 26  1  0
 25 27  1  0
 27 28  2  0
 28 29  1  0
 29 30  2  0
 10  5  1  0
 26 14  1  0
 23 14  1  0
 30 24  1  0
  4 31  1  0
  4 32  1  0
  6 33  1  0
  7 34  1  0
  9 35  1  0
 10 36  1  0
 11 37  1  0
 11 38  1  0
 12 39  1  0
 12 40  1  0
 15 41  1  0
 15 42  1  0
 15 43  1  0
 18 44  1  0
 21 45  1  0
 21 46  1  0
 22 47  1  0
 23 48  1  0
 23 49  1  0
 27 50  1  0
 28 51  1  0
 29 52  1  0
 30 53  1  0
M  END
>  <mol_id>  (7) 
STL568539

>  <drugclip_rank>  (7) 
7

>  <conformer>  (7) 
33

>  <align_rmsd>  (7) 
0.82

$$$$
Z8803916048
     RDKit          3D

 46 48  0  0  0  0  0  0  0  0999 V2000
    0.9385   -2.5714   -0.8495 Cl  0  0  0  0  0  0  0  0  0  0  0  0
   -1.5843   -4.8265   -2.8397 F   0  0  0  0  0  0  0  0  0  0  0  0
   -0.4868   -5.3927   -3.3966 C   0  0  0  0  0  0  0  0  0  0  0  0
   -0.4907   -5.9347   -4.6631 C   0  0  0  0  0  0  0  0  0  0  0  0
    0.6165   -6.5082   -5.2300 C   0  0  0  0  0  0  0  0  0  0  0  0
    1.8201   -6.5672   -4.5307 C   0  0  0  0  0  0  0  0  0  0  0  0
    1.8499   -6.0299   -3.2575 C   0  0  0  0  0  0  0  0  0  0  0  0
    0.7364   -5.4525   -2.6854 C   0  0  0  0  0  0  0  0  0  0  0  0
    0.7113   -4.8224   -1.3789 C   0  0  0  0  0  0  0  0  0  0  0  0
    0.5132   -5.4203   -0.1868 C   0  0  0  0  0  0  0  0  0  0  0  0
    0.4647   -4.6216    0.9437 C   0  0  0  0  0  0  0  0  0  0  0  0
    0.3764   -6.7902   -0.1107 C   0  0  0  0  0  0  0  0  0  0  0  0
    0.4511   -7.7122   -1.2419 C   0  0  0  0  0  0  0  0  0  0  0  0
    0.1857   -7.2929    1.1838 C   0  0  0  0  0  0  0  0  0  0  0  0
    0.1368   -6.5004    2.3033 C   0  0  0  0  0  0  0  0  0  0  0  0
    0.2763   -5.1706    2.1805 N   0  0  0  0  0  0  0  0  0  0  0  0
    0.8575   -3.4322   -1.3862 C   0  0  0  0  0  0  0  0  0  0  0  0
    0.8068   -2.6641   -0.2516 C   0  0  0  0  0  0  0  0  0  0  0  0
    0.6060   -3.2899    0.9191 N   0  0  0  0  0  0  0  0  0  0  0  0
    0.9566   -1.2175   -0.2359 C   0  0  0  0  0  0  0  0  0  0  0  0
    1.1669   -0.4570   -1.3665 C   0  0  0  0  0  0  0  0  0  0  0  0
    1.3069    0.9247   -1.3259 C   0  0  0  0  0  0  0  0  0  0  0  0
    1.2391    1.5970   -0.1298 C   0  0  0  0  0  0  0  0  0  0  0  0
    1.0293    0.8565    1.0145 C   0  0  0  0  0  0  0  0  0  0  0  0
    0.8916   -0.5143    0.9632 C   0  0  0  0  0  0  0  0  0  0  0  0
    1.4071    3.3266   -0.0157 S   0  0  0  0  0  0  0  0  0  0  0  0
    0.8497    3.9525   -1.2705 O   0  0  0  0  0  0  0  0  0  0  0  0
    0.5857    3.8142    1.1450 O   0  0  0  0  0  0  0  0  0  0  0  0
    3.0460    3.8065    0.2090 N   0  0  0  0  0  0  0  0  0  0  0  0
    0.8254   -3.8987   -1.2024 H   0  0  0  0  0  0  0  0  0  0  0  0
   -1.4091   -5.9071   -5.2373 H   0  0  0  0  0  0  0  0  0  0  0  0
    0.5355   -6.9157   -6.2366 H   0  0  0  0  0  0  0  0  0  0  0  0
    2.6863   -7.0183   -4.9802 H   0  0  0  0  0  0  0  0  0  0  0  0
    2.7655   -6.0462   -2.6587 H   0  0  0  0  0  0  0  0  0  0  0  0
    1.4827   -8.0691   -1.4645 H   0  0  0  0  0  0  0  0  0  0  0  0
    0.0356   -8.6993   -0.8025 H   0  0  0  0  0  0  0  0  0  0  0  0
   -0.2359   -7.6082   -2.0646 H   0  0  0  0  0  0  0  0  0  0  0  0
    0.0652   -8.3681    1.3573 H   0  0  0  0  0  0  0  0  0  0  0  0
   -0.0110   -6.9049    3.2931 H   0  0  0  0  0  0  0  0  0  0  0  0
    1.0198   -2.9139   -2.3213 H   0  0  0  0  0  0  0  0  0  0  0  0
    1.2312   -0.9112   -2.3347 H   0  0  0  0  0  0  0  0  0  0  0  0
    1.4708    1.4772   -2.2428 H   0  0  0  0  0  0  0  0  0  0  0  0
    0.9710    1.3704    1.9845 H   0  0  0  0  0  0  0  0  0  0  0  0
    0.7273   -1.0518    1.8976 H   0  0  0  0  0  0  0  0  0  0  0  0
    3.6981    3.0301    0.3715 H   0  0  0  0  0  0  0  0  0  0  0  0
    3.1460    4.5596    0.9294 H   0  0  0  0  0  0  0  0  0  0  0  0
  2  3  1  0
  3  4  2  0
  4  5  1  0
  5  6  2  0
  6  7  1  0
  7  8  2  0
  8  9  1  0
  9 10  1  0
 10 11  1  0
 10 12  2  0
 12 13  1  0
 12 14  1  0
 14 15  2  0
 15 16  1  0
  9 17  2  0
 17 18  1  0
 18 19  2  0
 18 20  1  0
 20 21  2  0
 21 22  1  0
 22 23  2  0
 23 24  1  0
 24 25  2  0
 23 26  1  0
 26 27  2  0
 26 28  2  0
 26 29  1  0
  8  3  1  0
 16 11  2  0
 19 11  1  0
 25 20  1  0
  1 30  1  0
  4 31  1  0
  5 32  1  0
  6 33  1  0
  7 34  1  0
 13 35  1  0
 13 36  1  0
 13 37  1  0
 14 38  1  0
 15 39  1  0
 17 40  1  0
 21 41  1  0
 22 42  1  0
 24 43  1  0
 25 44  1  0
 29 45  1  0
 29 46  1  0
M  END
>  <mol_id>  (8) 
Z8803916048

>  <drugclip_rank>  (8) 
8

>  <conformer>  (8) 
1

>  <align_rmsd>  (8) 
1.126

$$$$
MCULE-1966235308
     RDKit          3D

 51 53  0  0  0  0  0  0  0  0999 V2000
    1.4917   -1.0231   -0.7005 C   0  0  0  0  0  0  0  0  0  0  0  0
    2.5894   -1.4973    0.0432 C   0  0  0  0  0  0  0  0  0  0  0  0
    3.6478   -0.6558    0.4046 C   0  0  0  0  0  0  0  0  0  0  0  0
    3.6290    0.6854    0.0349 C   0  0  0  0  0  0  0  0  0  0  0  0
    2.5391    1.1763   -0.6855 C   0  0  0  0  0  0  0  0  0  0  0  0
    1.4860    0.3343   -1.0632 C   0  0  0  0  0  0  0  0  0  0  0  0
    2.5060    2.8922   -1.1427 S   0  0  0  0  0  0  0  0  0  0  0  0
    1.3195    3.1143   -1.9454 O   0  0  0  0  0  0  0  0  0  0  0  0
    3.8215    3.2281   -1.6468 O   0  0  0  0  0  0  0  0  0  0  0  0
    2.2665    3.7287    0.4006 C   0  0  0  0  0  0  0  0  0  0  0  0
    0.3868   -1.9224   -1.0892 C   0  0  0  0  0  0  0  0  0  0  0  0
   -0.9499   -1.5360   -0.9460 C   0  0  0  0  0  0  0  0  0  0  0  0
   -1.9466   -2.4148   -1.3323 C   0  0  0  0  0  0  0  0  0  0  0  0
   -1.7103   -3.6412   -1.8410 N   0  0  0  0  0  0  0  0  0  0  0  0
   -0.4223   -4.0211   -1.9741 C   0  0  0  0  0  0  0  0  0  0  0  0
    0.6392   -3.1991   -1.6180 C   0  0  0  0  0  0  0  0  0  0  0  0
   -0.2705   -5.3008   -2.4968 N   0  0  0  0  0  0  0  0  0  0  0  0
    0.8791   -6.0086   -2.7564 C   0  0  0  0  0  0  0  0  0  0  0  0
    2.0283   -5.6419   -2.5233 O   0  0  0  0  0  0  0  0  0  0  0  0
    0.5954   -7.4095   -3.3223 C   0  0  0  0  0  0  0  0  0  0  0  0
   -0.6794   -7.4418   -4.0864 N   0  0  0  0  0  0  0  0  0  0  0  0
   -0.5329   -6.8008   -5.4177 C   0  0  0  0  0  0  0  0  0  0  0  0
    0.2533   -7.6226   -6.4704 C   0  0  0  0  0  0  0  0  0  0  0  0
   -0.1936   -9.0192   -6.6304 N   0  0  0  0  0  0  0  0  0  0  0  0
   -1.4344   -9.0978   -7.4008 C   0  0  0  0  0  0  0  0  0  0  0  0
   -0.3343   -9.6575   -5.3088 C   0  0  0  0  0  0  0  0  0  0  0  0
   -1.1388   -8.8355   -4.2747 C   0  0  0  0  0  0  0  0  0  0  0  0
    2.6306   -2.5417    0.3520 H   0  0  0  0  0  0  0  0  0  0  0  0
    4.4871   -1.0565    0.9687 H   0  0  0  0  0  0  0  0  0  0  0  0
    4.4643    1.3299    0.2996 H   0  0  0  0  0  0  0  0  0  0  0  0
    0.6660    0.7321   -1.6599 H   0  0  0  0  0  0  0  0  0  0  0  0
    2.1698    4.7963    0.1965 H   0  0  0  0  0  0  0  0  0  0  0  0
    1.3536    3.3578    0.8677 H   0  0  0  0  0  0  0  0  0  0  0  0
    3.1294    3.5510    1.0441 H   0  0  0  0  0  0  0  0  0  0  0  0
   -1.2215   -0.5691   -0.5358 H   0  0  0  0  0  0  0  0  0  0  0  0
   -2.9952   -2.1466   -1.2400 H   0  0  0  0  0  0  0  0  0  0  0  0
    1.6662   -3.5221   -1.7629 H   0  0  0  0  0  0  0  0  0  0  0  0
   -1.1408   -5.7506   -2.7636 H   0  0  0  0  0  0  0  0  0  0  0  0
    1.4528   -7.7307   -3.9224 H   0  0  0  0  0  0  0  0  0  0  0  0
    0.5254   -8.0667   -2.4465 H   0  0  0  0  0  0  0  0  0  0  0  0
   -1.5436   -6.6100   -5.8006 H   0  0  0  0  0  0  0  0  0  0  0  0
   -0.0734   -5.8097   -5.3213 H   0  0  0  0  0  0  0  0  0  0  0  0
    0.2256   -7.1008   -7.4355 H   0  0  0  0  0  0  0  0  0  0  0  0
    1.3133   -7.6419   -6.1868 H   0  0  0  0  0  0  0  0  0  0  0  0
   -1.2927   -8.6717   -8.3997 H   0  0  0  0  0  0  0  0  0  0  0  0
   -1.7244  -10.1442   -7.5520 H   0  0  0  0  0  0  0  0  0  0  0  0
   -2.2720   -8.5784   -6.9265 H   0  0  0  0  0  0  0  0  0  0  0  0
   -0.7850  -10.6527   -5.4142 H   0  0  0  0  0  0  0  0  0  0  0  0
    0.6738   -9.8375   -4.9144 H   0  0  0  0  0  0  0  0  0  0  0  0
   -1.1437   -9.3631   -3.3131 H   0  0  0  0  0  0  0  0  0  0  0  0
   -2.1918   -8.8019   -4.5840 H   0  0  0  0  0  0  0  0  0  0  0  0
  1  2  2  0
  2  3  1  0
  3  4  2  0
  4  5  1  0
  5  6  2  0
  5  7  1  0
  7  8  2  0
  7  9  2  0
  7 10  1  0
  1 11  1  0
 11 12  2  0
 12 13  1  0
 13 14  2  0
 14 15  1  0
 15 16  2  0
 15 17  1  0
 17 18  1  0
 18 19  2  0
 18 20  1  0
 20 21  1  0
 21 22  1  0
 22 23  1  0
 23 24  1  0
 24 25  1  0
 24 26  1  0
 26 27  1  0
  6  1  1  0
 16 11  1  0
 27 21  1  0
  2 28  1  0
  3 29  1  0
  4 30  1  0
  6 31  1  0
 10 32  1  0
 10 33  1  0
 10 34  1  0
 12 35  1  0
 13 36  1  0
 16 37  1  0
 17 38  1  0
 20 39  1  0
 20 40  1  0
 22 41  1  0
 22 42  1  0
 23 43  1  0
 23 44  1  0
 25 45  1  0
 25 46  1  0
 25 47  1  0
 26 48  1  0
 26 49  1  0
 27 50  1  0
 27 51  1  0
M  END
>  <mol_id>  (9) 
MCULE-1966235308

>  <drugclip_rank>  (9) 
9

>  <conformer>  (9) 
7

>  <align_rmsd>  (9) 
0.593

$$$$
Z8315143560
     RDKit          3D

 51 52  0  0  0  0  0  0  0  0999 V2000
    1.1701   -2.5342   -0.7323 O   0  0  0  0  0  0  0  0  0  0  0  0
    0.3489   -2.1085    0.0710 C   0  0  0  0  0  0  0  0  0  0  0  0
    0.3176   -0.7735    0.3223 O   0  0  0  0  0  0  0  0  0  0  0  0
   -0.7150   -2.9148    0.8233 C   0  0  0  0  0  0  0  0  0  0  0  0
   -0.8708   -2.5060    2.1147 F   0  0  0  0  0  0  0  0  0  0  0  0
   -1.9427   -2.8129    0.2393 F   0  0  0  0  0  0  0  0  0  0  0  0
   -0.4273   -4.2455    0.8787 F   0  0  0  0  0  0  0  0  0  0  0  0
   -2.7421   -5.4376    1.5111 C   0  0  0  0  0  0  0  0  0  0  0  0
   -3.8043   -5.2128    2.6124 C   0  0  0  0  0  0  0  0  0  0  0  0
   -3.2977   -5.2104    3.9961 N   0  0  0  0  0  0  0  0  0  0  0  0
   -1.9174   -4.6921    4.0593 C   0  0  0  0  0  0  0  0  0  0  0  0
   -1.5016   -3.7623    2.8965 C   0  0  0  0  0  0  0  0  0  0  0  0
   -1.6516   -4.4519    1.6052 N   0  0  0  0  0  0  0  0  0  0  0  0
   -0.9531   -4.0540    0.4746 C   0  0  0  0  0  0  0  0  0  0  0  0
   -0.8329   -4.8909   -0.6494 C   0  0  0  0  0  0  0  0  0  0  0  0
   -0.0986   -4.5297   -1.7872 C   0  0  0  0  0  0  0  0  0  0  0  0
   -0.1014   -5.3550   -2.9216 N   0  0  0  0  0  0  0  0  0  0  0  0
   -0.3242   -2.8018    0.3899 C   0  0  0  0  0  0  0  0  0  0  0  0
    0.3656   -2.3794   -0.7616 C   0  0  0  0  0  0  0  0  0  0  0  0
    0.4478   -3.2505   -1.8540 C   0  0  0  0  0  0  0  0  0  0  0  0
    0.9577   -1.0356   -0.8265 C   0  0  0  0  0  0  0  0  0  0  0  0
    0.1159    0.0660   -1.0753 C   0  0  0  0  0  0  0  0  0  0  0  0
    0.6266    1.3639   -1.1488 C   0  0  0  0  0  0  0  0  0  0  0  0
    1.9932    1.5737   -0.9643 C   0  0  0  0  0  0  0  0  0  0  0  0
    2.8539    0.5005   -0.7272 C   0  0  0  0  0  0  0  0  0  0  0  0
    2.3357   -0.7956   -0.6542 C   0  0  0  0  0  0  0  0  0  0  0  0
    3.4511   -2.0798   -0.3338 Cl  0  0  0  0  0  0  0  0  0  0  0  0
    2.6588    3.2065   -1.0826 S   0  0  0  0  0  0  0  0  0  0  0  0
    4.0236    3.1252   -1.5458 O   0  0  0  0  0  0  0  0  0  0  0  0
    1.6814    4.0767   -1.6927 O   0  0  0  0  0  0  0  0  0  0  0  0
    2.7383    3.6624    0.5304 N   0  0  0  0  0  0  0  0  0  0  0  0
    1.0306   -0.4004   -0.2387 H   0  0  0  0  0  0  0  0  0  0  0  0
   -2.3241   -6.4473    1.6022 H   0  0  0  0  0  0  0  0  0  0  0  0
   -3.2550   -5.3655    0.5442 H   0  0  0  0  0  0  0  0  0  0  0  0
   -4.5873   -5.9746    2.5248 H   0  0  0  0  0  0  0  0  0  0  0  0
   -4.2946   -4.2470    2.4361 H   0  0  0  0  0  0  0  0  0  0  0  0
   -3.2949   -6.1636    4.3578 H   0  0  0  0  0  0  0  0  0  0  0  0
   -1.7890   -4.1664    5.0115 H   0  0  0  0  0  0  0  0  0  0  0  0
   -1.2320   -5.5497    4.0752 H   0  0  0  0  0  0  0  0  0  0  0  0
   -2.1124   -2.8513    2.9058 H   0  0  0  0  0  0  0  0  0  0  0  0
   -0.4561   -3.4769    3.0642 H   0  0  0  0  0  0  0  0  0  0  0  0
   -1.2982   -5.8721   -0.6381 H   0  0  0  0  0  0  0  0  0  0  0  0
   -0.2101   -6.3407   -2.7037 H   0  0  0  0  0  0  0  0  0  0  0  0
    0.6822   -5.1870   -3.5455 H   0  0  0  0  0  0  0  0  0  0  0  0
   -0.3928   -2.1050    1.2213 H   0  0  0  0  0  0  0  0  0  0  0  0
    0.9504   -2.9265   -2.7621 H   0  0  0  0  0  0  0  0  0  0  0  0
   -0.9527   -0.0916   -1.2214 H   0  0  0  0  0  0  0  0  0  0  0  0
   -0.0454    2.1958   -1.3505 H   0  0  0  0  0  0  0  0  0  0  0  0
    3.9206    0.6700   -0.5982 H   0  0  0  0  0  0  0  0  0  0  0  0
    3.7093    3.8309    0.7960 H   0  0  0  0  0  0  0  0  0  0  0  0
    2.1250    4.4617    0.6946 H   0  0  0  0  0  0  0  0  0  0  0  0
  1  2  2  0
  2  3  1  0
  2  4  1  0
  4  5  1  0
  4  6  1  0
  4  7  1  0
  8  9  1  0
  9 10  1  0
 10 11  1  0
 11 12  1  0
 12 13  1  0
 13 14  1  0
 14 15  2  0
 15 16  1  0
 16 17  1  0
 14 18  1  0
 18 19  2  0
 19 20  1  0
 19 21  1  0
 21 22  2  0
 22 23  1  0
 23 24  2  0
 24 25  1  0
 25 26  2  0
 26 27  1  0
 24 28  1  0
 28 29  2  0
 28 30  2  0
 28 31  1  0
 13  8  1  0
 20 16  2  0
 26 21  1  0
  3 32  1  0
  8 33  1  0
  8 34  1  0
  9 35  1  0
  9 36  1  0
 10 37  1  0
 11 38  1  0
 11 39  1  0
 12 40  1  0
 12 41  1  0
 15 42  1  0
 17 43  1  0
 17 44  1  0
 18 45  1  0
 20 46  1  0
 22 47  1  0
 23 48  1  0
 25 49  1  0
 31 50  1  0
 31 51  1  0
M  END
>  <mol_id>  (10) 
Z8315143560

>  <drugclip_rank>  (10) 
10

>  <conformer>  (10) 
4

>  <align_rmsd>  (10) 
0.78

$$$$
MCULE-1528614132
     RDKit          3D

 54 56  0  0  0  0  0  0  0  0999 V2000
   -1.1789   -1.6172   -0.4826 C   0  0  0  0  0  0  0  0  0  0  0  0
   -0.4051   -2.4074    0.3821 C   0  0  0  0  0  0  0  0  0  0  0  0
    0.1766   -3.5971   -0.0591 C   0  0  0  0  0  0  0  0  0  0  0  0
   -0.0076   -4.0175   -1.3743 C   0  0  0  0  0  0  0  0  0  0  0  0
   -0.7718   -3.2520   -2.2645 C   0  0  0  0  0  0  0  0  0  0  0  0
   -1.3536   -2.0581   -1.8066 C   0  0  0  0  0  0  0  0  0  0  0  0
   -0.9857   -3.7180   -3.6897 C   0  0  0  0  0  0  0  0  0  0  0  0
    0.2682   -3.9279   -4.4288 N   0  0  0  0  0  0  0  0  0  0  0  0
    0.9798   -2.6591   -4.6836 C   0  0  0  0  0  0  0  0  0  0  0  0
    2.2536   -2.8578   -5.5408 C   0  0  0  0  0  0  0  0  0  0  0  0
    2.0434   -3.5699   -6.8170 N   0  0  0  0  0  0  0  0  0  0  0  0
    1.3770   -2.7247   -7.8043 C   0  0  0  0  0  0  0  0  0  0  0  0
    1.2846   -4.8080   -6.5541 C   0  0  0  0  0  0  0  0  0  0  0  0
    0.0052   -4.6208   -5.7046 C   0  0  0  0  0  0  0  0  0  0  0  0
   -1.7895   -0.3630   -0.0163 C   0  0  0  0  0  0  0  0  0  0  0  0
   -2.6289   -0.3393    1.0992 C   0  0  0  0  0  0  0  0  0  0  0  0
   -3.1771    0.8681    1.4916 C   0  0  0  0  0  0  0  0  0  0  0  0
   -2.9469    2.0363    0.8593 N   0  0  0  0  0  0  0  0  0  0  0  0
   -2.1338    2.0226   -0.2077 C   0  0  0  0  0  0  0  0  0  0  0  0
   -1.5462    0.8504   -0.6758 C   0  0  0  0  0  0  0  0  0  0  0  0
   -1.8613    3.2049   -0.9098 N   0  0  0  0  0  0  0  0  0  0  0  0
   -2.2261    4.4744   -0.5063 C   0  0  0  0  0  0  0  0  0  0  0  0
   -2.7705    4.7953    0.5457 O   0  0  0  0  0  0  0  0  0  0  0  0
   -1.8766    5.5388   -1.5012 C   0  0  0  0  0  0  0  0  0  0  0  0
   -0.1409    5.8539   -1.4379 S   0  0  0  0  0  0  0  0  0  0  0  0
    0.5306    4.6111   -1.7814 O   0  0  0  0  0  0  0  0  0  0  0  0
    0.1091    7.0510   -2.2191 O   0  0  0  0  0  0  0  0  0  0  0  0
    0.2013    6.2350    0.2675 C   0  0  0  0  0  0  0  0  0  0  0  0
   -0.2372   -2.0928    1.4103 H   0  0  0  0  0  0  0  0  0  0  0  0
    0.7785   -4.1939    0.6214 H   0  0  0  0  0  0  0  0  0  0  0  0
    0.4549   -4.9426   -1.7135 H   0  0  0  0  0  0  0  0  0  0  0  0
   -1.9616   -1.4679   -2.4901 H   0  0  0  0  0  0  0  0  0  0  0  0
   -1.5412   -4.6635   -3.6247 H   0  0  0  0  0  0  0  0  0  0  0  0
   -1.6373   -3.0167   -4.2279 H   0  0  0  0  0  0  0  0  0  0  0  0
    1.2921   -2.2077   -3.7347 H   0  0  0  0  0  0  0  0  0  0  0  0
    0.3165   -1.9391   -5.1800 H   0  0  0  0  0  0  0  0  0  0  0  0
    2.9825   -3.4309   -4.9519 H   0  0  0  0  0  0  0  0  0  0  0  0
    2.7266   -1.8852   -5.7254 H   0  0  0  0  0  0  0  0  0  0  0  0
    0.3822   -2.3912   -7.4925 H   0  0  0  0  0  0  0  0  0  0  0  0
    1.2729   -3.2601   -8.7547 H   0  0  0  0  0  0  0  0  0  0  0  0
    1.9824   -1.8359   -8.0145 H   0  0  0  0  0  0  0  0  0  0  0  0
    1.9509   -5.5065   -6.0301 H   0  0  0  0  0  0  0  0  0  0  0  0
    1.0284   -5.3017   -7.4998 H   0  0  0  0  0  0  0  0  0  0  0  0
   -0.4089   -5.6151   -5.4972 H   0  0  0  0  0  0  0  0  0  0  0  0
   -0.7453   -4.0755   -6.2914 H   0  0  0  0  0  0  0  0  0  0  0  0
   -2.8645   -1.2445    1.6498 H   0  0  0  0  0  0  0  0  0  0  0  0
   -3.8390    0.9319    2.3507 H   0  0  0  0  0  0  0  0  0  0  0  0
   -0.8851    0.8706   -1.5370 H   0  0  0  0  0  0  0  0  0  0  0  0
   -1.2204    3.1213   -1.6928 H   0  0  0  0  0  0  0  0  0  0  0  0
   -2.4088    6.4658   -1.2707 H   0  0  0  0  0  0  0  0  0  0  0  0
   -2.1378    5.2257   -2.5159 H   0  0  0  0  0  0  0  0  0  0  0  0
    1.2489    6.5354    0.3401 H   0  0  0  0  0  0  0  0  0  0  0  0
   -0.4437    7.0583    0.5796 H   0  0  0  0  0  0  0  0  0  0  0  0
    0.0309    5.3483    0.8795 H   0  0  0  0  0  0  0  0  0  0  0  0
  1  2  2  0
  2  3  1  0
  3  4  2  0
  4  5  1  0
  5  6  2  0
  5  7  1  0
  7  8  1  0
  8  9  1  0
  9 10  1  0
 10 11  1  0
 11 12  1  0
 11 13  1  0
 13 14  1  0
  1 15  1  0
 15 16  2  0
 16 17  1  0
 17 18  2  0
 18 19  1  0
 19 20  2  0
 19 21  1  0
 21 22  1  0
 22 23  2  0
 22 24  1  0
 24 25  1  0
 25 26  2  0
 25 27  2  0
 25 28  1  0
  6  1  1  0
 14  8  1  0
 20 15  1  0
  2 29  1  0
  3 30  1  0
  4 31  1  0
  6 32  1  0
  7 33  1  0
  7 34  1  0
  9 35  1  0
  9 36  1  0
 10 37  1  0
 10 38  1  0
 12 39  1  0
 12 40  1  0
 12 41  1  0
 13 42  1  0
 13 43  1  0
 14 44  1  0
 14 45  1  0
 16 46  1  0
 17 47  1  0
 20 48  1  0
 21 49  1  0
 24 50  1  0
 24 51  1  0
 28 52  1  0
 28 53  1  0
 28 54  1  0
M  END
>  <mol_id>  (11) 
MCULE-1528614132

>  <drugclip_rank>  (11) 
12

>  <conformer>  (11) 
14

>  <align_rmsd>  (11) 
0.787

$$$$
MCULE-3438514248
     RDKit          3D

 54 57  0  0  0  0  0  0  0  0999 V2000
    1.4492   -0.9827   -0.5860 C   0  0  0  0  0  0  0  0  0  0  0  0
    2.6752   -1.6683   -0.6227 C   0  0  0  0  0  0  0  0  0  0  0  0
    3.8776   -0.9863   -0.8304 C   0  0  0  0  0  0  0  0  0  0  0  0
    3.8741    0.3958   -1.0035 C   0  0  0  0  0  0  0  0  0  0  0  0
    2.6621    1.0870   -0.9567 C   0  0  0  0  0  0  0  0  0  0  0  0
    1.4539    0.4086   -0.7603 C   0  0  0  0  0  0  0  0  0  0  0  0
    2.6399    2.8473   -1.1936 S   0  0  0  0  0  0  0  0  0  0  0  0
    3.9261    3.2363   -1.7394 O   0  0  0  0  0  0  0  0  0  0  0  0
    1.4093    3.1761   -1.8857 O   0  0  0  0  0  0  0  0  0  0  0  0
    2.5360    3.4793    0.4608 C   0  0  0  0  0  0  0  0  0  0  0  0
    0.1911   -1.7076   -0.3696 C   0  0  0  0  0  0  0  0  0  0  0  0
   -0.5226   -1.5463    0.8369 C   0  0  0  0  0  0  0  0  0  0  0  0
   -1.7255   -2.2201    1.0881 C   0  0  0  0  0  0  0  0  0  0  0  0
   -2.1699   -3.0510    0.0701 C   0  0  0  0  0  0  0  0  0  0  0  0
   -1.5169   -3.2464   -1.1327 C   0  0  0  0  0  0  0  0  0  0  0  0
   -0.3119   -2.5708   -1.3669 C   0  0  0  0  0  0  0  0  0  0  0  0
   -2.2301   -4.1242   -1.9112 N   0  0  0  0  0  0  0  0  0  0  0  0
   -3.2730   -4.4225   -1.1626 C   0  0  0  0  0  0  0  0  0  0  0  0
   -3.2991   -3.8111    0.0568 O   0  0  0  0  0  0  0  0  0  0  0  0
   -4.2735   -5.2664   -1.5250 N   0  0  0  0  0  0  0  0  0  0  0  0
   -5.3844   -5.5324   -0.7611 C   0  0  0  0  0  0  0  0  0  0  0  0
   -5.6265   -5.0960    0.3608 O   0  0  0  0  0  0  0  0  0  0  0  0
   -6.3282   -6.5360   -1.4420 C   0  0  0  0  0  0  0  0  0  0  0  0
   -6.1872   -6.4830   -2.9248 N   0  0  0  0  0  0  0  0  0  0  0  0
   -6.7267   -7.7192   -3.5304 C   0  0  0  0  0  0  0  0  0  0  0  0
   -8.2609   -7.9264   -3.4049 C   0  0  0  0  0  0  0  0  0  0  0  0
   -9.0199   -6.6873   -3.1599 N   0  0  0  0  0  0  0  0  0  0  0  0
  -10.4309   -6.8509   -3.4915 C   0  0  0  0  0  0  0  0  0  0  0  0
   -8.4142   -5.5612   -3.8812 C   0  0  0  0  0  0  0  0  0  0  0  0
   -6.9320   -5.3192   -3.4796 C   0  0  0  0  0  0  0  0  0  0  0  0
    2.6985   -2.7489   -0.4883 H   0  0  0  0  0  0  0  0  0  0  0  0
    4.8151   -1.5373   -0.8628 H   0  0  0  0  0  0  0  0  0  0  0  0
    4.8122    0.9181   -1.1802 H   0  0  0  0  0  0  0  0  0  0  0  0
    0.5126    0.9565   -0.7613 H   0  0  0  0  0  0  0  0  0  0  0  0
    2.5507    4.5703    0.4075 H   0  0  0  0  0  0  0  0  0  0  0  0
    1.6007    3.1440    0.9130 H   0  0  0  0  0  0  0  0  0  0  0  0
    3.3953    3.1249    1.0340 H   0  0  0  0  0  0  0  0  0  0  0  0
   -0.1297   -0.8851    1.6098 H   0  0  0  0  0  0  0  0  0  0  0  0
   -2.2759   -2.1063    2.0132 H   0  0  0  0  0  0  0  0  0  0  0  0
    0.2096   -2.7110   -2.3082 H   0  0  0  0  0  0  0  0  0  0  0  0
   -4.2380   -5.6633   -2.4560 H   0  0  0  0  0  0  0  0  0  0  0  0
   -6.0236   -7.5227   -1.0689 H   0  0  0  0  0  0  0  0  0  0  0  0
   -7.3517   -6.3411   -1.1035 H   0  0  0  0  0  0  0  0  0  0  0  0
   -6.4699   -7.6953   -4.5974 H   0  0  0  0  0  0  0  0  0  0  0  0
   -6.2039   -8.5956   -3.1292 H   0  0  0  0  0  0  0  0  0  0  0  0
   -8.4563   -8.6088   -2.5697 H   0  0  0  0  0  0  0  0  0  0  0  0
   -8.6057   -8.4246   -4.3207 H   0  0  0  0  0  0  0  0  0  0  0  0
  -10.8657   -7.6829   -2.9247 H   0  0  0  0  0  0  0  0  0  0  0  0
  -10.9961   -5.9526   -3.2164 H   0  0  0  0  0  0  0  0  0  0  0  0
  -10.5867   -7.0416   -4.5597 H   0  0  0  0  0  0  0  0  0  0  0  0
   -8.9760   -4.6403   -3.6822 H   0  0  0  0  0  0  0  0  0  0  0  0
   -8.4632   -5.7408   -4.9642 H   0  0  0  0  0  0  0  0  0  0  0  0
   -6.3956   -4.9916   -4.3804 H   0  0  0  0  0  0  0  0  0  0  0  0
   -6.8806   -4.4692   -2.7883 H   0  0  0  0  0  0  0  0  0  0  0  0
  1  2  2  0
  2  3  1  0
  3  4  2  0
  4  5  1  0
  5  6  2  0
  5  7  1  0
  7  8  2  0
  7  9  2  0
  7 10  1  0
  1 11  1  0
 11 12  2  0
 12 13  1  0
 13 14  2  0
 14 15  1  0
 15 16  2  0
 15 17  1  0
 17 18  2  0
 18 19  1  0
 18 20  1  0
 20 21  1  0
 21 22  2  0
 21 23  1  0
 23 24  1  0
 24 25  1  0
 25 26  1  0
 26 27  1  0
 27 28  1  0
 27 29  1  0
 29 30  1  0
  6  1  1  0
 16 11  1  0
 30 24  1  0
 19 14  1  0
  2 31  1  0
  3 32  1  0
  4 33  1  0
  6 34  1  0
 10 35  1  0
 10 36  1  0
 10 37  1  0
 12 38  1  0
 13 39  1  0
 16 40  1  0
 20 41  1  0
 23 42  1  0
 23 43  1  0
 25 44  1  0
 25 45  1  0
 26 46  1  0
 26 47  1  0
 28 48  1  0
 28 49  1  0
 28 50  1  0
 29 51  1  0
 29 52  1  0
 30 53  1  0
 30 54  1  0
M  END
>  <mol_id>  (12) 
MCULE-3438514248

>  <drugclip_rank>  (12) 
13

>  <conformer>  (12) 
21

>  <align_rmsd>  (12) 
0.716

$$$$
Z7684145496
     RDKit          3D

 67 71  0  0  0  0  0  0  0  0999 V2000
    3.7847    5.5783    1.4844 C   0  0  0  0  0  0  0  0  0  0  0  0
    3.0438    5.4503    0.1685 C   0  0  0  0  0  0  0  0  0  0  0  0
    1.6886    4.2830    0.2314 S   0  0  0  0  0  0  0  0  0  0  0  0
    0.7952    4.6839    1.2973 O   0  0  0  0  0  0  0  0  0  0  0  0
    1.1930    4.0700   -1.1099 O   0  0  0  0  0  0  0  0  0  0  0  0
    2.4482    2.8814    0.7984 N   0  0  0  0  0  0  0  0  0  0  0  0
    2.7360    1.8625   -0.1615 C   0  0  0  0  0  0  0  0  0  0  0  0
    3.9316    1.9536   -0.8760 C   0  0  0  0  0  0  0  0  0  0  0  0
    4.2457    1.0006   -1.8420 C   0  0  0  0  0  0  0  0  0  0  0  0
    3.3635   -0.0482   -2.0959 C   0  0  0  0  0  0  0  0  0  0  0  0
    1.8198    0.8300   -0.4277 C   0  0  0  0  0  0  0  0  0  0  0  0
    2.1562   -0.1543   -1.3859 C   0  0  0  0  0  0  0  0  0  0  0  0
    0.5127    0.7198    0.3284 C   0  0  0  0  0  0  0  0  0  0  0  0
   -0.4694   -0.2692   -0.3080 C   0  0  0  0  0  0  0  0  0  0  0  0
    0.2580   -1.5093   -0.6172 N   0  0  0  0  0  0  0  0  0  0  0  0
    1.2069   -1.2928   -1.7209 C   0  0  0  0  0  0  0  0  0  0  0  0
   -0.6490   -2.5298   -0.9408 C   0  0  0  0  0  0  0  0  0  0  0  0
   -0.9095   -3.5696   -0.0698 C   0  0  0  0  0  0  0  0  0  0  0  0
   -1.8171   -4.5486   -0.4208 C   0  0  0  0  0  0  0  0  0  0  0  0
   -0.4642   -3.9438    1.1680 N   0  0  0  0  0  0  0  0  0  0  0  0
   -1.1126   -5.0977    1.5120 C   0  0  0  0  0  0  0  0  0  0  0  0
   -1.9415   -5.4894    0.5679 N   0  0  0  0  0  0  0  0  0  0  0  0
    0.5265   -3.2657    1.9651 C   0  0  0  0  0  0  0  0  0  0  0  0
   -1.3176   -2.5487   -2.1156 N   0  0  0  0  0  0  0  0  0  0  0  0
   -2.1882   -3.5406   -2.3882 C   0  0  0  0  0  0  0  0  0  0  0  0
   -2.4805   -4.5594   -1.5858 N   0  0  0  0  0  0  0  0  0  0  0  0
   -2.7821   -3.4326   -3.6352 N   0  0  0  0  0  0  0  0  0  0  0  0
   -4.1971   -3.8591   -3.8342 C   0  0  0  0  0  0  0  0  0  0  0  0
   -4.5176   -3.4795   -5.3215 C   0  0  0  0  0  0  0  0  0  0  0  0
   -5.5199   -2.8908   -5.7113 O   0  0  0  0  0  0  0  0  0  0  0  0
   -3.5610   -3.8897   -6.2194 N   0  0  0  0  0  0  0  0  0  0  0  0
   -4.3653   -5.3938   -3.7271 C   0  0  0  0  0  0  0  0  0  0  0  0
   -5.3923   -5.7789   -2.6651 C   0  0  0  0  0  0  0  0  0  0  0  0
   -6.6698   -5.1165   -2.9124 N   0  0  0  0  0  0  0  0  0  0  0  0
   -6.5707   -3.6566   -2.9153 C   0  0  0  0  0  0  0  0  0  0  0  0
   -5.1473   -3.0910   -2.8960 C   0  0  0  0  0  0  0  0  0  0  0  0
    3.1035    5.8397    2.3003 H   0  0  0  0  0  0  0  0  0  0  0  0
    4.5478    6.3599    1.4144 H   0  0  0  0  0  0  0  0  0  0  0  0
    4.2847    4.6418    1.7522 H   0  0  0  0  0  0  0  0  0  0  0  0
    3.7185    5.1334   -0.6326 H   0  0  0  0  0  0  0  0  0  0  0  0
    2.6059    6.4132   -0.1146 H   0  0  0  0  0  0  0  0  0  0  0  0
    1.9685    2.5618    1.6411 H   0  0  0  0  0  0  0  0  0  0  0  0
    4.6360    2.7557   -0.6757 H   0  0  0  0  0  0  0  0  0  0  0  0
    5.1756    1.0783   -2.3983 H   0  0  0  0  0  0  0  0  0  0  0  0
    3.6177   -0.7850   -2.8562 H   0  0  0  0  0  0  0  0  0  0  0  0
    0.7442    0.3889    1.3486 H   0  0  0  0  0  0  0  0  0  0  0  0
    0.0203    1.6964    0.3920 H   0  0  0  0  0  0  0  0  0  0  0  0
   -1.2861   -0.4542    0.4020 H   0  0  0  0  0  0  0  0  0  0  0  0
   -0.9105    0.1671   -1.2156 H   0  0  0  0  0  0  0  0  0  0  0  0
    0.6977   -1.0387   -2.6596 H   0  0  0  0  0  0  0  0  0  0  0  0
    1.7927   -2.2074   -1.8731 H   0  0  0  0  0  0  0  0  0  0  0  0
   -0.9437   -5.6111    2.4504 H   0  0  0  0  0  0  0  0  0  0  0  0
    0.6483   -3.7871    2.9167 H   0  0  0  0  0  0  0  0  0  0  0  0
    1.4731   -3.2704    1.4217 H   0  0  0  0  0  0  0  0  0  0  0  0
    0.1898   -2.2446    2.1531 H   0  0  0  0  0  0  0  0  0  0  0  0
   -2.6149   -2.4678   -3.9130 H   0  0  0  0  0  0  0  0  0  0  0  0
   -3.6459   -3.5582   -7.1699 H   0  0  0  0  0  0  0  0  0  0  0  0
   -2.6317   -4.0780   -5.8526 H   0  0  0  0  0  0  0  0  0  0  0  0
   -3.4163   -5.9002   -3.5168 H   0  0  0  0  0  0  0  0  0  0  0  0
   -4.7033   -5.8193   -4.6835 H   0  0  0  0  0  0  0  0  0  0  0  0
   -5.5481   -6.8639   -2.6913 H   0  0  0  0  0  0  0  0  0  0  0  0
   -5.0327   -5.5463   -1.6553 H   0  0  0  0  0  0  0  0  0  0  0  0
   -7.0462   -5.4234   -3.8109 H   0  0  0  0  0  0  0  0  0  0  0  0
   -7.1088   -3.2742   -2.0377 H   0  0  0  0  0  0  0  0  0  0  0  0
   -7.1181   -3.2701   -3.7822 H   0  0  0  0  0  0  0  0  0  0  0  0
   -4.7856   -3.1288   -1.8612 H   0  0  0  0  0  0  0  0  0  0  0  0
   -5.1790   -2.0248   -3.1604 H   0  0  0  0  0  0  0  0  0  0  0  0
  1  2  1  0
  2  3  1  0
  3  4  2  0
  3  5  2  0
  3  6  1  0
  6  7  1  0
  7  8  2  0
  8  9  1  0
  9 10  2  0
  7 11  1  0
 11 12  2  0
 11 13  1  0
 13 14  1  0
 14 15  1  0
 15 16  1  0
 15 17  1  0
 17 18  2  0
 18 19  1  0
 18 20  1  0
 20 21  1  0
 21 22  2  0
 20 23  1  0
 17 24  1  0
 24 25  2  0
 25 26  1  0
 25 27  1  0
 27 28  1  0
 28 29  1  0
 29 30  2  0
 29 31  1  0
 28 32  1  0
 32 33  1  0
 33 34  1  0
 34 35  1  0
 35 36  1  0
 12 10  1  0
 16 12  1  0
 26 19  2  0
 22 19  1  0
 36 28  1  0
  1 37  1  0
  1 38  1  0
  1 39  1  0
  2 40  1  0
  2 41  1  0
  6 42  1  0
  8 43  1  0
  9 44  1  0
 10 45  1  0
 13 46  1  0
 13 47  1  0
 14 48  1  0
 14 49  1  0
 16 50  1  0
 16 51  1  0
 21 52  1  0
 23 53  1  0
 23 54  1  0
 23 55  1  0
 27 56  1  0
 31 57  1  0
 31 58  1  0
 32 59  1  0
 32 60  1  0
 33 61  1  0
 33 62  1  0
 34 63  1  0
 35 64  1  0
 35 65  1  0
 36 66  1  0
 36 67  1  0
M  END
>  <mol_id>  (13) 
Z7684145496

>  <drugclip_rank>  (13) 
14

>  <conformer>  (13) 
29

>  <align_rmsd>  (13) 
1.246

$$$$
MCULE-8219326142
     RDKit          3D

 49 51  0  0  0  0  0  0  0  0999 V2000
   -1.4480   -3.3928   -1.8031 C   0  0  0  0  0  0  0  0  0  0  0  0
   -2.4595   -4.2756   -1.7151 N   0  0  0  0  0  0  0  0  0  0  0  0
   -3.4673   -4.0018   -0.8705 C   0  0  0  0  0  0  0  0  0  0  0  0
   -3.5214   -2.8634   -0.1140 C   0  0  0  0  0  0  0  0  0  0  0  0
   -2.4895   -1.9693   -0.2984 C   0  0  0  0  0  0  0  0  0  0  0  0
   -1.4666   -2.2207   -1.1477 N   0  0  0  0  0  0  0  0  0  0  0  0
   -2.4372   -0.6949    0.4426 C   0  0  0  0  0  0  0  0  0  0  0  0
   -1.9653    0.4730   -0.1337 C   0  0  0  0  0  0  0  0  0  0  0  0
   -1.9569    1.6406    0.6344 C   0  0  0  0  0  0  0  0  0  0  0  0
   -2.3927    1.6118    1.9656 C   0  0  0  0  0  0  0  0  0  0  0  0
   -2.8568    0.4170    2.4582 C   0  0  0  0  0  0  0  0  0  0  0  0
   -2.9186   -0.7194    1.7267 N   0  0  0  0  0  0  0  0  0  0  0  0
   -1.4501    2.9242    0.0787 C   0  0  0  0  0  0  0  0  0  0  0  0
   -1.3037    2.8854   -1.2599 O   0  0  0  0  0  0  0  0  0  0  0  0
   -1.1898    3.9196    0.7276 O   0  0  0  0  0  0  0  0  0  0  0  0
   -0.3163   -3.7282   -2.5809 N   0  0  0  0  0  0  0  0  0  0  0  0
   -0.2224   -5.1777   -2.7922 C   0  0  0  0  0  0  0  0  0  0  0  0
    1.0291   -5.5554   -3.5880 C   0  0  0  0  0  0  0  0  0  0  0  0
    2.2774   -4.9826   -2.9114 C   0  0  2  0  0  0  0  0  0  0  0  0
    2.1523   -3.4532   -2.8747 C   0  0  2  0  0  0  0  0  0  0  0  0
    3.3197   -2.8727   -2.2777 O   0  0  0  0  0  0  0  0  0  0  0  0
    0.8923   -3.0486   -2.0835 C   0  0  0  0  0  0  0  0  0  0  0  0
    3.6111   -5.5046   -3.4843 C   0  0  0  0  0  0  0  0  0  0  0  0
    4.2228   -4.7505   -4.5987 N   0  0  0  0  0  0  0  0  0  0  0  0
    3.4946   -4.9212   -5.8613 C   0  0  0  0  0  0  0  0  0  0  0  0
    5.6195   -5.2026   -4.7743 C   0  0  0  0  0  0  0  0  0  0  0  0
   -4.2571   -4.7492   -0.8276 H   0  0  0  0  0  0  0  0  0  0  0  0
   -4.3307   -2.6720    0.5720 H   0  0  0  0  0  0  0  0  0  0  0  0
   -1.6053    0.4640   -1.1616 H   0  0  0  0  0  0  0  0  0  0  0  0
   -2.3732    2.4978    2.5957 H   0  0  0  0  0  0  0  0  0  0  0  0
   -3.1873    0.3297    3.4960 H   0  0  0  0  0  0  0  0  0  0  0  0
   -0.8566    3.7352   -1.5109 H   0  0  0  0  0  0  0  0  0  0  0  0
   -1.0850   -5.5361   -3.3614 H   0  0  0  0  0  0  0  0  0  0  0  0
   -0.2091   -5.7071   -1.8311 H   0  0  0  0  0  0  0  0  0  0  0  0
    0.9279   -5.1779   -4.6119 H   0  0  0  0  0  0  0  0  0  0  0  0
    1.0964   -6.6471   -3.6512 H   0  0  0  0  0  0  0  0  0  0  0  0
    2.2706   -5.3374   -1.8705 H   0  0  0  0  0  0  0  0  0  0  0  0
    2.0652   -3.0473   -3.8950 H   0  0  0  0  0  0  0  0  0  0  0  0
    4.0450   -3.0408   -2.9180 H   0  0  0  0  0  0  0  0  0  0  0  0
    1.0524   -3.2698   -1.0175 H   0  0  0  0  0  0  0  0  0  0  0  0
    0.7886   -1.9598   -2.1702 H   0  0  0  0  0  0  0  0  0  0  0  0
    3.5225   -6.5672   -3.7336 H   0  0  0  0  0  0  0  0  0  0  0  0
    4.3211   -5.4649   -2.6484 H   0  0  0  0  0  0  0  0  0  0  0  0
    3.3265   -5.9777   -6.1005 H   0  0  0  0  0  0  0  0  0  0  0  0
    2.5292   -4.4071   -5.8245 H   0  0  0  0  0  0  0  0  0  0  0  0
    4.0410   -4.4577   -6.6937 H   0  0  0  0  0  0  0  0  0  0  0  0
    6.1913   -5.0463   -3.8484 H   0  0  0  0  0  0  0  0  0  0  0  0
    5.6797   -6.2649   -5.0366 H   0  0  0  0  0  0  0  0  0  0  0  0
    6.1204   -4.6189   -5.5548 H   0  0  0  0  0  0  0  0  0  0  0  0
  1  2  2  0
  2  3  1  0
  3  4  2  0
  4  5  1  0
  5  6  2  0
  5  7  1  0
  7  8  2  0
  8  9  1  0
  9 10  2  0
 10 11  1  0
 11 12  2  0
  9 13  1  0
 13 14  1  0
 13 15  2  0
  1 16  1  0
 16 17  1  0
 17 18  1  0
 18 19  1  0
 19 20  1  0
 20 21  1  0
 20 22  1  0
 19 23  1  0
 23 24  1  0
 24 25  1  0
 24 26  1  0
  6  1  1  0
 12  7  1  0
 22 16  1  0
  3 27  1  0
  4 28  1  0
  8 29  1  0
 10 30  1  0
 11 31  1  0
 14 32  1  0
 17 33  1  0
 17 34  1  0
 18 35  1  0
 18 36  1  0
 19 37  1  1
 20 38  1  6
 21 39  1  0
 22 40  1  0
 22 41  1  0
 23 42  1  0
 23 43  1  0
 25 44  1  0
 25 45  1  0
 25 46  1  0
 26 47  1  0
 26 48  1  0
 26 49  1  0
M  END
>  <mol_id>  (14) 
MCULE-8219326142

>  <drugclip_rank>  (14) 
15

>  <conformer>  (14) 
22

>  <align_rmsd>  (14) 
0.437

$$$$
Z5612752744
     RDKit          3D

 60 64  0  0  0  0  0  0  0  0999 V2000
    8.0444    4.6331  -10.4682 N   0  0  0  0  0  0  0  0  0  0  0  0
    7.1397    6.0451  -10.5415 S   0  0  0  0  0  0  0  0  0  0  0  0
    8.0950    7.1290  -10.5384 O   0  0  0  0  0  0  0  0  0  0  0  0
    6.1910    5.8515  -11.6130 O   0  0  0  0  0  0  0  0  0  0  0  0
    6.2894    6.0087   -8.9944 C   0  0  0  0  0  0  0  0  0  0  0  0
    6.8250    6.6630   -7.8890 C   0  0  0  0  0  0  0  0  0  0  0  0
    6.1387    6.6275   -6.6685 C   0  0  0  0  0  0  0  0  0  0  0  0
    4.9223    5.9375   -6.5107 C   0  0  0  0  0  0  0  0  0  0  0  0
    4.3931    5.3316   -7.6645 C   0  0  0  0  0  0  0  0  0  0  0  0
    5.0611    5.3598   -8.8944 C   0  0  0  0  0  0  0  0  0  0  0  0
    4.2732    5.8933   -5.2825 N   0  0  0  0  0  0  0  0  0  0  0  0
    5.0637    5.8857   -4.0260 C   0  0  0  0  0  0  0  0  0  0  0  0
    4.6152    4.7449   -3.0853 C   0  0  0  0  0  0  0  0  0  0  0  0
    3.1860    4.8408   -2.7433 N   0  0  0  0  0  0  0  0  0  0  0  0
    2.3371    5.5194   -3.7384 C   0  0  0  0  0  0  0  0  0  0  0  0
    2.9002    5.3505   -5.1685 C   0  0  0  0  0  0  0  0  0  0  0  0
    2.6568    3.7041   -2.1418 C   0  0  0  0  0  0  0  0  0  0  0  0
    3.4983    2.7591   -1.7011 N   0  0  0  0  0  0  0  0  0  0  0  0
    2.9969    1.6462   -1.1576 C   0  0  0  0  0  0  0  0  0  0  0  0
    1.6290    1.4367   -0.9940 C   0  0  0  0  0  0  0  0  0  0  0  0
    3.8765    0.6525   -0.7430 C   0  0  0  0  0  0  0  0  0  0  0  0
    3.4283   -0.5513   -0.1920 C   0  0  0  0  0  0  0  0  0  0  0  0
    2.0669   -0.7812   -0.0615 C   0  0  0  0  0  0  0  0  0  0  0  0
    1.1698    0.2037   -0.4649 C   0  0  0  0  0  0  0  0  0  0  0  0
    1.3299    3.6056   -1.9962 N   0  0  0  0  0  0  0  0  0  0  0  0
    0.8307    2.5059   -1.4092 C   0  0  0  0  0  0  0  0  0  0  0  0
   -0.5664    2.5467   -1.2371 N   0  0  0  0  0  0  0  0  0  0  0  0
   -0.9546    2.7773    0.1590 C   0  0  0  0  0  0  0  0  0  0  0  0
   -1.7568    1.6287    0.7253 C   0  0  0  0  0  0  0  0  0  0  0  0
   -1.5380    1.2073    2.0461 C   0  0  0  0  0  0  0  0  0  0  0  0
   -2.2946    0.1712    2.5985 C   0  0  0  0  0  0  0  0  0  0  0  0
   -3.2840   -0.4512    1.8407 C   0  0  0  0  0  0  0  0  0  0  0  0
   -3.5188   -0.0393    0.5300 C   0  0  0  0  0  0  0  0  0  0  0  0
   -2.7646    0.9991   -0.0219 C   0  0  0  0  0  0  0  0  0  0  0  0
    7.7370    3.9854  -11.1926 H   0  0  0  0  0  0  0  0  0  0  0  0
    9.0406    4.8511  -10.4986 H   0  0  0  0  0  0  0  0  0  0  0  0
    7.7650    7.2048   -7.9607 H   0  0  0  0  0  0  0  0  0  0  0  0
    6.5671    7.1785   -5.8348 H   0  0  0  0  0  0  0  0  0  0  0  0
    3.4456    4.8038   -7.6305 H   0  0  0  0  0  0  0  0  0  0  0  0
    4.6165    4.8701   -9.7574 H   0  0  0  0  0  0  0  0  0  0  0  0
    6.1359    5.7508   -4.2092 H   0  0  0  0  0  0  0  0  0  0  0  0
    4.9300    6.8546   -3.5293 H   0  0  0  0  0  0  0  0  0  0  0  0
    4.8225    3.7971   -3.5975 H   0  0  0  0  0  0  0  0  0  0  0  0
    5.2183    4.7807   -2.1722 H   0  0  0  0  0  0  0  0  0  0  0  0
    2.3161    6.5880   -3.4872 H   0  0  0  0  0  0  0  0  0  0  0  0
    1.2936    5.1852   -3.7315 H   0  0  0  0  0  0  0  0  0  0  0  0
    2.9019    4.2836   -5.4256 H   0  0  0  0  0  0  0  0  0  0  0  0
    2.2363    5.8771   -5.8629 H   0  0  0  0  0  0  0  0  0  0  0  0
    4.9458    0.8186   -0.8560 H   0  0  0  0  0  0  0  0  0  0  0  0
    4.1458   -1.3062    0.1202 H   0  0  0  0  0  0  0  0  0  0  0  0
    1.7019   -1.7204    0.3454 H   0  0  0  0  0  0  0  0  0  0  0  0
    0.1048    0.0043   -0.3882 H   0  0  0  0  0  0  0  0  0  0  0  0
   -0.8180    3.3836   -1.7639 H   0  0  0  0  0  0  0  0  0  0  0  0
   -1.5962    3.6677    0.1979 H   0  0  0  0  0  0  0  0  0  0  0  0
   -0.0901    3.0031    0.7990 H   0  0  0  0  0  0  0  0  0  0  0  0
   -0.7697    1.6793    2.6547 H   0  0  0  0  0  0  0  0  0  0  0  0
   -2.1140   -0.1479    3.6215 H   0  0  0  0  0  0  0  0  0  0  0  0
   -3.8718   -1.2578    2.2711 H   0  0  0  0  0  0  0  0  0  0  0  0
   -4.2912   -0.5218   -0.0632 H   0  0  0  0  0  0  0  0  0  0  0  0
   -2.9584    1.3117   -1.0458 H   0  0  0  0  0  0  0  0  0  0  0  0
  1  2  1  0
  2  3  2  0
  2  4  2  0
  2  5  1  0
  5  6  2  0
  6  7  1  0
  7  8  2  0
  8  9  1  0
  9 10  2  0
  8 11  1  0
 11 12  1  0
 12 13  1  0
 13 14  1  0
 14 15  1  0
 15 16  1  0
 14 17  1  0
 17 18  2  0
 18 19  1  0
 19 20  2  0
 19 21  1  0
 21 22  2  0
 22 23  1  0
 23 24  2  0
 17 25  1  0
 25 26  2  0
 26 27  1  0
 27 28  1  0
 28 29  1  0
 29 30  2  0
 30 31  1  0
 31 32  2  0
 32 33  1  0
 33 34  2  0
 10  5  1  0
 16 11  1  0
 26 20  1  0
 24 20  1  0
 34 29  1  0
  1 35  1  0
  1 36  1  0
  6 37  1  0
  7 38  1  0
  9 39  1  0
 10 40  1  0
 12 41  1  0
 12 42  1  0
 13 43  1  0
 13 44  1  0
 15 45  1  0
 15 46  1  0
 16 47  1  0
 16 48  1  0
 21 49  1  0
 22 50  1  0
 23 51  1  0
 24 52  1  0
 27 53  1  0
 28 54  1  0
 28 55  1  0
 30 56  1  0
 31 57  1  0
 32 58  1  0
 33 59  1  0
 34 60  1  0
M  END
>  <mol_id>  (15) 
Z5612752744

>  <drugclip_rank>  (15) 
16

>  <conformer>  (15) 
24

>  <align_rmsd>  (15) 
0.578

$$$$
MCULE-1390089024
     RDKit          3D

 47 49  0  0  0  0  0  0  0  0999 V2000
    1.5381   -1.0910   -0.8627 C   0  0  0  0  0  0  0  0  0  0  0  0
    2.7308   -1.6097   -0.3243 C   0  0  0  0  0  0  0  0  0  0  0  0
    3.8259   -0.7854   -0.0439 C   0  0  0  0  0  0  0  0  0  0  0  0
    3.7494    0.5821   -0.2877 C   0  0  0  0  0  0  0  0  0  0  0  0
    2.5677    1.1153   -0.8030 C   0  0  0  0  0  0  0  0  0  0  0  0
    1.4754    0.2919   -1.1025 C   0  0  0  0  0  0  0  0  0  0  0  0
    2.4695    2.8603   -1.1213 S   0  0  0  0  0  0  0  0  0  0  0  0
    1.3283    3.0887   -1.9874 O   0  0  0  0  0  0  0  0  0  0  0  0
    3.7953    3.3089   -1.5008 O   0  0  0  0  0  0  0  0  0  0  0  0
    2.0874    3.5417    0.4712 C   0  0  0  0  0  0  0  0  0  0  0  0
    0.3959   -1.9728   -1.1729 C   0  0  0  0  0  0  0  0  0  0  0  0
   -0.9076   -1.6328   -0.7986 C   0  0  0  0  0  0  0  0  0  0  0  0
   -1.9421   -2.4947   -1.1175 C   0  0  0  0  0  0  0  0  0  0  0  0
   -1.7732   -3.6614   -1.7725 N   0  0  0  0  0  0  0  0  0  0  0  0
   -0.5160   -3.9938   -2.1303 C   0  0  0  0  0  0  0  0  0  0  0  0
    0.5787   -3.1854   -1.8567 C   0  0  0  0  0  0  0  0  0  0  0  0
   -0.4479   -5.2167   -2.7960 N   0  0  0  0  0  0  0  0  0  0  0  0
    0.6698   -5.8961   -3.2308 C   0  0  0  0  0  0  0  0  0  0  0  0
    1.8324   -5.5233   -3.0977 O   0  0  0  0  0  0  0  0  0  0  0  0
    0.3243   -7.2291   -3.9141 C   0  0  0  0  0  0  0  0  0  0  0  0
    0.5579   -8.3728   -3.0129 N   0  0  0  0  0  0  0  0  0  0  0  0
    0.4602   -9.6642   -3.7240 C   0  0  0  0  0  0  0  0  0  0  0  0
   -0.8786  -10.3854   -3.5012 C   0  0  0  0  0  0  0  0  0  0  0  0
   -1.1548  -10.6600   -2.1212 O   0  0  0  0  0  0  0  0  0  0  0  0
   -0.4983   -9.7549   -1.2224 C   0  0  0  0  0  0  0  0  0  0  0  0
   -0.3260   -8.3540   -1.8283 C   0  0  0  0  0  0  0  0  0  0  0  0
    2.8206   -2.6763   -0.1197 H   0  0  0  0  0  0  0  0  0  0  0  0
    4.7400   -1.2188    0.3559 H   0  0  0  0  0  0  0  0  0  0  0  0
    4.6105    1.2157   -0.0864 H   0  0  0  0  0  0  0  0  0  0  0  0
    0.5801    0.7254   -1.5457 H   0  0  0  0  0  0  0  0  0  0  0  0
    1.9992    4.6250    0.3635 H   0  0  0  0  0  0  0  0  0  0  0  0
    2.8948    3.3035    1.1661 H   0  0  0  0  0  0  0  0  0  0  0  0
    1.1400    3.1254    0.8187 H   0  0  0  0  0  0  0  0  0  0  0  0
   -1.1226   -0.7167   -0.2583 H   0  0  0  0  0  0  0  0  0  0  0  0
   -2.9670   -2.2616   -0.8423 H   0  0  0  0  0  0  0  0  0  0  0  0
    1.5748   -3.4671   -2.1788 H   0  0  0  0  0  0  0  0  0  0  0  0
   -1.3600   -5.6382   -2.9019 H   0  0  0  0  0  0  0  0  0  0  0  0
    0.9816   -7.2937   -4.7906 H   0  0  0  0  0  0  0  0  0  0  0  0
   -0.7061   -7.2169   -4.2900 H   0  0  0  0  0  0  0  0  0  0  0  0
    0.6533   -9.5534   -4.7975 H   0  0  0  0  0  0  0  0  0  0  0  0
    1.2630  -10.3031   -3.3345 H   0  0  0  0  0  0  0  0  0  0  0  0
   -1.7078   -9.7897   -3.9002 H   0  0  0  0  0  0  0  0  0  0  0  0
   -0.8825  -11.3430   -4.0318 H   0  0  0  0  0  0  0  0  0  0  0  0
   -1.1059   -9.6997   -0.3134 H   0  0  0  0  0  0  0  0  0  0  0  0
    0.4699  -10.1858   -0.9413 H   0  0  0  0  0  0  0  0  0  0  0  0
    0.0935   -7.6811   -1.0729 H   0  0  0  0  0  0  0  0  0  0  0  0
   -1.3223   -7.9835   -2.1027 H   0  0  0  0  0  0  0  0  0  0  0  0
  1  2  2  0
  2  3  1  0
  3  4  2  0
  4  5  1  0
  5  6  2  0
  5  7  1  0
  7  8  2  0
  7  9  2  0
  7 10  1  0
  1 11  1  0
 11 12  2  0
 12 13  1  0
 13 14  2  0
 14 15  1  0
 15 16  2  0
 15 17  1  0
 17 18  1  0
 18 19  2  0
 18 20  1  0
 20 21  1  0
 21 22  1  0
 22 23  1  0
 23 24  1  0
 24 25  1  0
 25 26  1  0
  6  1  1  0
 16 11  1  0
 26 21  1  0
  2 27  1  0
  3 28  1  0
  4 29  1  0
  6 30  1  0
 10 31  1  0
 10 32  1  0
 10 33  1  0
 12 34  1  0
 13 35  1  0
 16 36  1  0
 17 37  1  0
 20 38  1  0
 20 39  1  0
 22 40  1  0
 22 41  1  0
 23 42  1  0
 23 43  1  0
 25 44  1  0
 25 45  1  0
 26 46  1  0
 26 47  1  0
M  END
>  <mol_id>  (16) 
MCULE-1390089024

>  <drugclip_rank>  (16) 
17

>  <conformer>  (16) 
36

>  <align_rmsd>  (16) 
0.674

$$$$
MCULE-5517028926
     RDKit          3D

 50 52  0  0  0  0  0  0  0  0999 V2000
   -1.1925   -1.5549   -0.5167 C   0  0  0  0  0  0  0  0  0  0  0  0
   -1.5839   -2.0611   -1.7641 C   0  0  0  0  0  0  0  0  0  0  0  0
   -1.0475   -3.2552   -2.2477 C   0  0  0  0  0  0  0  0  0  0  0  0
   -0.1127   -3.9606   -1.4890 C   0  0  0  0  0  0  0  0  0  0  0  0
    0.2991   -3.4789   -0.2390 C   0  0  0  0  0  0  0  0  0  0  0  0
   -0.2460   -2.2727    0.2324 C   0  0  0  0  0  0  0  0  0  0  0  0
    1.3187   -4.2387    0.5836 C   0  0  0  0  0  0  0  0  0  0  0  0
    0.8085   -5.1969    1.5700 N   0  0  0  0  0  0  0  0  0  0  0  0
    0.0498   -6.3152    0.9882 C   0  0  0  0  0  0  0  0  0  0  0  0
   -0.3289   -7.3328    2.0779 C   0  0  0  0  0  0  0  0  0  0  0  0
   -1.0963   -6.7164    3.1224 O   0  0  0  0  0  0  0  0  0  0  0  0
   -0.3523   -5.6394    3.7109 C   0  0  0  0  0  0  0  0  0  0  0  0
    0.0294   -4.5849    2.6588 C   0  0  0  0  0  0  0  0  0  0  0  0
   -1.7677   -0.3115    0.0023 C   0  0  0  0  0  0  0  0  0  0  0  0
   -2.7038   -0.3358    1.0368 C   0  0  0  0  0  0  0  0  0  0  0  0
   -3.2230    0.8649    1.4837 C   0  0  0  0  0  0  0  0  0  0  0  0
   -2.8703    2.0651    0.9810 N   0  0  0  0  0  0  0  0  0  0  0  0
   -1.9611    2.0944   -0.0060 C   0  0  0  0  0  0  0  0  0  0  0  0
   -1.3935    0.9321   -0.5219 C   0  0  0  0  0  0  0  0  0  0  0  0
   -1.5389    3.3129   -0.5580 N   0  0  0  0  0  0  0  0  0  0  0  0
   -1.9590    4.5668   -0.1586 C   0  0  0  0  0  0  0  0  0  0  0  0
   -2.8298    4.8126    0.6743 O   0  0  0  0  0  0  0  0  0  0  0  0
   -1.3681    5.7148   -0.9327 C   0  0  0  0  0  0  0  0  0  0  0  0
    0.3845    5.5746   -1.0773 S   0  0  0  0  0  0  0  0  0  0  0  0
    0.9815    5.7171    0.2334 O   0  0  0  0  0  0  0  0  0  0  0  0
    0.6506    4.4032   -1.8969 O   0  0  0  0  0  0  0  0  0  0  0  0
    0.8233    7.0097   -2.0268 C   0  0  0  0  0  0  0  0  0  0  0  0
   -2.3203   -1.5294   -2.3641 H   0  0  0  0  0  0  0  0  0  0  0  0
   -1.3640   -3.6408   -3.2130 H   0  0  0  0  0  0  0  0  0  0  0  0
    0.2964   -4.8903   -1.8797 H   0  0  0  0  0  0  0  0  0  0  0  0
    0.0741   -1.8831    1.1975 H   0  0  0  0  0  0  0  0  0  0  0  0
    1.9682   -3.5140    1.0948 H   0  0  0  0  0  0  0  0  0  0  0  0
    1.9999   -4.7659   -0.0989 H   0  0  0  0  0  0  0  0  0  0  0  0
    0.6489   -6.8245    0.2255 H   0  0  0  0  0  0  0  0  0  0  0  0
   -0.8713   -5.9522    0.5178 H   0  0  0  0  0  0  0  0  0  0  0  0
    0.5634   -7.7986    2.5135 H   0  0  0  0  0  0  0  0  0  0  0  0
   -0.9419   -8.1296    1.6453 H   0  0  0  0  0  0  0  0  0  0  0  0
    0.5368   -6.0439    4.2100 H   0  0  0  0  0  0  0  0  0  0  0  0
   -0.9853   -5.1832    4.4792 H   0  0  0  0  0  0  0  0  0  0  0  0
   -0.8935   -4.1408    2.2686 H   0  0  0  0  0  0  0  0  0  0  0  0
    0.6115   -3.7956    3.1467 H   0  0  0  0  0  0  0  0  0  0  0  0
   -3.0303   -1.2700    1.4823 H   0  0  0  0  0  0  0  0  0  0  0  0
   -3.9573    0.8989    2.2835 H   0  0  0  0  0  0  0  0  0  0  0  0
   -0.6570    0.9795   -1.3201 H   0  0  0  0  0  0  0  0  0  0  0  0
   -0.8191    3.2444   -1.2759 H   0  0  0  0  0  0  0  0  0  0  0  0
   -1.5784    6.6540   -0.4115 H   0  0  0  0  0  0  0  0  0  0  0  0
   -1.8061    5.7405   -1.9336 H   0  0  0  0  0  0  0  0  0  0  0  0
    1.9076    7.0164   -2.1540 H   0  0  0  0  0  0  0  0  0  0  0  0
    0.3326    6.9511   -2.9996 H   0  0  0  0  0  0  0  0  0  0  0  0
    0.5032    7.9020   -1.4859 H   0  0  0  0  0  0  0  0  0  0  0  0
  1  2  2  0
  2  3  1  0
  3  4  2  0
  4  5  1  0
  5  6  2  0
  5  7  1  0
  7  8  1  0
  8  9  1  0
  9 10  1  0
 10 11  1  0
 11 12  1  0
 12 13  1  0
  1 14  1  0
 14 15  2  0
 15 16  1  0
 16 17  2  0
 17 18  1  0
 18 19  2  0
 18 20  1  0
 20 21  1  0
 21 22  2  0
 21 23  1  0
 23 24  1  0
 24 25  2  0
 24 26  2  0
 24 27  1  0
  6  1  1  0
 13  8  1  0
 19 14  1  0
  2 28  1  0
  3 29  1  0
  4 30  1  0
  6 31  1  0
  7 32  1  0
  7 33  1  0
  9 34  1  0
  9 35  1  0
 10 36  1  0
 10 37  1  0
 12 38  1  0
 12 39  1  0
 13 40  1  0
 13 41  1  0
 15 42  1  0
 16 43  1  0
 19 44  1  0
 20 45  1  0
 23 46  1  0
 23 47  1  0
 27 48  1  0
 27 49  1  0
 27 50  1  0
M  END
>  <mol_id>  (17) 
MCULE-5517028926

>  <drugclip_rank>  (17) 
18

>  <conformer>  (17) 
39

>  <align_rmsd>  (17) 
0.661

$$$$
STL184866
     RDKit          3D

 52 54  0  0  0  0  0  0  0  0999 V2000
   -4.4570   -0.0755    0.2110 C   0  0  0  0  0  0  0  0  0  0  0  0
   -5.0273    1.1570   -0.1379 C   0  0  0  0  0  0  0  0  0  0  0  0
   -4.5386    2.3441    0.4202 C   0  0  0  0  0  0  0  0  0  0  0  0
   -5.0273    3.5974    0.1611 O   0  0  0  0  0  0  0  0  0  0  0  0
   -5.9714    3.7191   -0.8963 C   0  0  0  0  0  0  0  0  0  0  0  0
   -3.4755    2.2666    1.3339 C   0  0  0  0  0  0  0  0  0  0  0  0
   -2.9478    3.4110    1.8841 O   0  0  0  0  0  0  0  0  0  0  0  0
   -3.5525    3.6549    3.1597 C   0  0  0  0  0  0  0  0  0  0  0  0
   -2.8849    1.0432    1.6617 C   0  0  0  0  0  0  0  0  0  0  0  0
   -3.3877   -0.1412    1.1143 C   0  0  0  0  0  0  0  0  0  0  0  0
   -2.8230   -1.4325    1.4880 C   0  0  0  0  0  0  0  0  0  0  0  0
   -2.8555   -1.8766    2.7884 N   0  0  0  0  0  0  0  0  0  0  0  0
   -2.3629   -3.1111    2.9633 N   0  0  0  0  0  0  0  0  0  0  0  0
   -2.0260   -3.4831    1.7288 C   0  0  0  0  0  0  0  0  0  0  0  0
   -2.2673   -2.4779    0.7589 C   0  0  0  0  0  0  0  0  0  0  0  0
   -1.9783   -2.6015   -0.6603 C   0  0  0  0  0  0  0  0  0  0  0  0
   -1.8142   -3.6938   -1.1915 O   0  0  0  0  0  0  0  0  0  0  0  0
   -1.8342   -1.4157   -1.3452 N   0  0  0  0  0  0  0  0  0  0  0  0
   -1.3568   -1.3834   -2.7141 C   0  0  0  0  0  0  0  0  0  0  0  0
    0.1391   -1.6871   -2.8435 C   0  0  0  0  0  0  0  0  0  0  0  0
    1.0087   -0.6791   -2.1302 C   0  0  0  0  0  0  0  0  0  0  0  0
    1.4895   -0.9489   -0.8392 C   0  0  0  0  0  0  0  0  0  0  0  0
    2.2823   -0.0114   -0.1675 C   0  0  0  0  0  0  0  0  0  0  0  0
    1.3302    0.5431   -2.7411 C   0  0  0  0  0  0  0  0  0  0  0  0
    2.1302    1.4804   -2.0788 C   0  0  0  0  0  0  0  0  0  0  0  0
    2.5985    1.1974   -0.7919 C   0  0  0  0  0  0  0  0  0  0  0  0
    3.6547    2.3611    0.0177 S   0  0  0  0  0  0  0  0  0  0  0  0
    4.0444    1.8409    1.3080 O   0  0  0  0  0  0  0  0  0  0  0  0
    4.6134    2.8617   -0.9417 O   0  0  0  0  0  0  0  0  0  0  0  0
    2.6078    3.6298    0.3491 N   0  0  0  0  0  0  0  0  0  0  0  0
   -4.8624   -0.9865   -0.2267 H   0  0  0  0  0  0  0  0  0  0  0  0
   -5.8573    1.1528   -0.8348 H   0  0  0  0  0  0  0  0  0  0  0  0
   -6.9057    3.2002   -0.6545 H   0  0  0  0  0  0  0  0  0  0  0  0
   -6.2112    4.7796   -1.0108 H   0  0  0  0  0  0  0  0  0  0  0  0
   -5.5529    3.3638   -1.8440 H   0  0  0  0  0  0  0  0  0  0  0  0
   -3.1402    4.5924    3.5576 H   0  0  0  0  0  0  0  0  0  0  0  0
   -3.3129    2.8526    3.8675 H   0  0  0  0  0  0  0  0  0  0  0  0
   -4.6379    3.7723    3.0773 H   0  0  0  0  0  0  0  0  0  0  0  0
   -2.0377    1.0290    2.3421 H   0  0  0  0  0  0  0  0  0  0  0  0
   -3.2219   -1.3901    3.5980 H   0  0  0  0  0  0  0  0  0  0  0  0
   -1.6071   -4.4712    1.5704 H   0  0  0  0  0  0  0  0  0  0  0  0
   -1.7382   -0.5669   -0.8039 H   0  0  0  0  0  0  0  0  0  0  0  0
   -1.5874   -0.3898   -3.1104 H   0  0  0  0  0  0  0  0  0  0  0  0
   -1.9279   -2.1160   -3.2926 H   0  0  0  0  0  0  0  0  0  0  0  0
    0.3635   -2.6925   -2.4644 H   0  0  0  0  0  0  0  0  0  0  0  0
    0.4128   -1.7017   -3.9044 H   0  0  0  0  0  0  0  0  0  0  0  0
    1.2528   -1.8935   -0.3505 H   0  0  0  0  0  0  0  0  0  0  0  0
    2.6594   -0.2423    0.8265 H   0  0  0  0  0  0  0  0  0  0  0  0
    0.9702    0.7668   -3.7438 H   0  0  0  0  0  0  0  0  0  0  0  0
    2.3927    2.4120   -2.5690 H   0  0  0  0  0  0  0  0  0  0  0  0
    2.9066    4.4693   -0.1421 H   0  0  0  0  0  0  0  0  0  0  0  0
    2.5267    3.7588    1.3625 H   0  0  0  0  0  0  0  0  0  0  0  0
  1  2  2  0
  2  3  1  0
  3  4  1  0
  4  5  1  0
  3  6  2  0
  6  7  1  0
  7  8  1  0
  6  9  1  0
  9 10  2  0
 10 11  1  0
 11 12  1  0
 12 13  1  0
 13 14  2  0
 11 15  2  0
 15 16  1  0
 16 17  2  0
 16 18  1  0
 18 19  1  0
 19 20  1  0
 20 21  1  0
 21 22  2  0
 22 23  1  0
 21 24  1  0
 24 25  2  0
 25 26  1  0
 26 27  1  0
 27 28  2  0
 27 29  2  0
 27 30  1  0
 10  1  1  0
 15 14  1  0
 26 23  2  0
  1 31  1  0
  2 32  1  0
  5 33  1  0
  5 34  1  0
  5 35  1  0
  8 36  1  0
  8 37  1  0
  8 38  1  0
  9 39  1  0
 12 40  1  0
 14 41  1  0
 18 42  1  0
 19 43  1  0
 19 44  1  0
 20 45  1  0
 20 46  1  0
 22 47  1  0
 23 48  1  0
 24 49  1  0
 25 50  1  0
 30 51  1  0
 30 52  1  0
M  END
>  <mol_id>  (18) 
STL184866

>  <drugclip_rank>  (18) 
19

>  <conformer>  (18) 
1

>  <align_rmsd>  (18) 
1.29

$$$$
STL184928
     RDKit          3D

 51 53  0  0  0  0  0  0  0  0999 V2000
   -3.6070    0.6907   -1.0771 C   0  0  0  0  0  0  0  0  0  0  0  0
   -2.4462   -0.2643   -0.8588 C   0  0  0  0  0  0  0  0  0  0  0  0
   -2.1019   -0.8461   -2.1218 O   0  0  0  0  0  0  0  0  0  0  0  0
   -1.1707   -1.8387   -1.9538 C   0  0  0  0  0  0  0  0  0  0  0  0
    0.1785   -1.4901   -1.9100 C   0  0  0  0  0  0  0  0  0  0  0  0
    1.1492   -2.4857   -1.7754 C   0  0  0  0  0  0  0  0  0  0  0  0
   -1.5493   -3.1831   -1.9013 C   0  0  0  0  0  0  0  0  0  0  0  0
   -3.2055   -3.6558   -1.9765 Cl  0  0  0  0  0  0  0  0  0  0  0  0
   -0.5773   -4.1797   -1.7720 C   0  0  0  0  0  0  0  0  0  0  0  0
    0.7788   -3.8350   -1.7003 C   0  0  0  0  0  0  0  0  0  0  0  0
    1.7949   -4.8714   -1.5705 C   0  0  0  0  0  0  0  0  0  0  0  0
    1.9394   -5.8482   -2.5282 N   0  0  0  0  0  0  0  0  0  0  0  0
    2.9498   -6.6974   -2.3024 N   0  0  0  0  0  0  0  0  0  0  0  0
    3.4921   -6.2388   -1.1741 C   0  0  0  0  0  0  0  0  0  0  0  0
    2.8102   -5.1118   -0.6485 C   0  0  0  0  0  0  0  0  0  0  0  0
    3.1752   -4.4222    0.5804 C   0  0  0  0  0  0  0  0  0  0  0  0
    4.2652   -4.5994    1.1170 O   0  0  0  0  0  0  0  0  0  0  0  0
    2.2123   -3.5985    1.1190 N   0  0  0  0  0  0  0  0  0  0  0  0
    2.3940   -2.9778    2.4173 C   0  0  0  0  0  0  0  0  0  0  0  0
    1.5704   -1.6938    2.5765 C   0  0  0  0  0  0  0  0  0  0  0  0
    1.8934   -0.5399    1.6458 C   0  0  0  0  0  0  0  0  0  0  0  0
    0.9169    0.4545    1.4476 C   0  0  0  0  0  0  0  0  0  0  0  0
    1.1666    1.5503    0.6194 C   0  0  0  0  0  0  0  0  0  0  0  0
    3.1381   -0.3955    1.0123 C   0  0  0  0  0  0  0  0  0  0  0  0
    3.3959    0.6986    0.1818 C   0  0  0  0  0  0  0  0  0  0  0  0
    2.4111    1.6691   -0.0041 C   0  0  0  0  0  0  0  0  0  0  0  0
    2.7318    3.0503   -1.0680 S   0  0  0  0  0  0  0  0  0  0  0  0
    1.4608    3.5824   -1.5140 O   0  0  0  0  0  0  0  0  0  0  0  0
    3.7888    2.6901   -1.9857 O   0  0  0  0  0  0  0  0  0  0  0  0
    3.3446    4.1790    0.0234 N   0  0  0  0  0  0  0  0  0  0  0  0
   -4.4754    0.1518   -1.4719 H   0  0  0  0  0  0  0  0  0  0  0  0
   -3.3450    1.4602   -1.8100 H   0  0  0  0  0  0  0  0  0  0  0  0
   -3.8918    1.1792   -0.1411 H   0  0  0  0  0  0  0  0  0  0  0  0
   -2.7459   -1.0401   -0.1427 H   0  0  0  0  0  0  0  0  0  0  0  0
   -1.5894    0.2880   -0.4511 H   0  0  0  0  0  0  0  0  0  0  0  0
    0.4776   -0.4469   -1.9907 H   0  0  0  0  0  0  0  0  0  0  0  0
    2.1989   -2.1979   -1.7414 H   0  0  0  0  0  0  0  0  0  0  0  0
   -0.8810   -5.2238   -1.7277 H   0  0  0  0  0  0  0  0  0  0  0  0
    1.3872   -5.9741   -3.3708 H   0  0  0  0  0  0  0  0  0  0  0  0
    4.3604   -6.7401   -0.7631 H   0  0  0  0  0  0  0  0  0  0  0  0
    1.2673   -3.7036    0.7745 H   0  0  0  0  0  0  0  0  0  0  0  0
    2.0689   -3.7131    3.1640 H   0  0  0  0  0  0  0  0  0  0  0  0
    3.4588   -2.7913    2.5990 H   0  0  0  0  0  0  0  0  0  0  0  0
    1.6917   -1.3310    3.6054 H   0  0  0  0  0  0  0  0  0  0  0  0
    0.5097   -1.9526    2.4485 H   0  0  0  0  0  0  0  0  0  0  0  0
   -0.0537    0.3742    1.9364 H   0  0  0  0  0  0  0  0  0  0  0  0
    0.3918    2.2981    0.4681 H   0  0  0  0  0  0  0  0  0  0  0  0
    3.9267   -1.1321    1.1461 H   0  0  0  0  0  0  0  0  0  0  0  0
    4.3633    0.7839   -0.3079 H   0  0  0  0  0  0  0  0  0  0  0  0
    2.7103    4.9822    0.0511 H   0  0  0  0  0  0  0  0  0  0  0  0
    3.5106    3.7932    0.9527 H   0  0  0  0  0  0  0  0  0  0  0  0
  1  2  1  0
  2  3  1  0
  3  4  1  0
  4  5  2  0
  5  6  1  0
  4  7  1  0
  7  8  1  0
  7  9  2  0
  9 10  1  0
 10 11  1  0
 11 12  1  0
 12 13  1  0
 13 14  2  0
 11 15  2  0
 15 16  1  0
 16 17  2  0
 16 18  1  0
 18 19  1  0
 19 20  1  0
 20 21  1  0
 21 22  2  0
 22 23  1  0
 21 24  1  0
 24 25  2  0
 25 26  1  0
 26 27  1  0
 27 28  2  0
 27 29  2  0
 27 30  1  0
 10  6  2  0
 15 14  1  0
 26 23  2  0
  1 31  1  0
  1 32  1  0
  1 33  1  0
  2 34  1  0
  2 35  1  0
  5 36  1  0
  6 37  1  0
  9 38  1  0
 12 39  1  0
 14 40  1  0
 18 41  1  0
 19 42  1  0
 19 43  1  0
 20 44  1  0
 20 45  1  0
 22 46  1  0
 23 47  1  0
 24 48  1  0
 25 49  1  0
 30 50  1  0
 30 51  1  0
M  END
>  <mol_id>  (19) 
STL184928

>  <drugclip_rank>  (19) 
20

>  <conformer>  (19) 
8

>  <align_rmsd>  (19) 
0.925

$$$$
Z9304515688
     RDKit          3D

 45 47  0  0  0  0  0  0  0  0999 V2000
   -0.8066    4.0519   -0.6495 N   0  0  0  0  0  0  0  0  0  0  0  0
   -1.4384    3.5381    0.8176 S   0  0  0  0  0  0  0  0  0  0  0  0
   -2.7110    4.2172    0.9259 O   0  0  0  0  0  0  0  0  0  0  0  0
   -0.4120    3.6573    1.8240 O   0  0  0  0  0  0  0  0  0  0  0  0
   -1.7675    1.8244    0.5934 C   0  0  0  0  0  0  0  0  0  0  0  0
   -2.9721    1.2831    1.0457 C   0  0  0  0  0  0  0  0  0  0  0  0
   -3.2236   -0.0823    0.8729 C   0  0  0  0  0  0  0  0  0  0  0  0
   -2.2853   -0.9226    0.2452 C   0  0  0  0  0  0  0  0  0  0  0  0
   -1.0851   -0.3483   -0.2069 C   0  0  0  0  0  0  0  0  0  0  0  0
   -0.8345    1.0125   -0.0311 C   0  0  0  0  0  0  0  0  0  0  0  0
    0.3114    1.5174   -0.5077 F   0  0  0  0  0  0  0  0  0  0  0  0
   -2.5546   -2.3562    0.0684 C   0  0  0  0  0  0  0  0  0  0  0  0
   -2.9491   -3.1725    1.1319 C   0  0  0  0  0  0  0  0  0  0  0  0
   -3.1982   -4.5330    0.9286 C   0  0  0  0  0  0  0  0  0  0  0  0
   -3.0489   -5.0588   -0.3446 C   0  0  0  0  0  0  0  0  0  0  0  0
   -2.6690   -4.3037   -1.3958 N   0  0  0  0  0  0  0  0  0  0  0  0
   -2.4349   -2.9873   -1.1681 C   0  0  0  0  0  0  0  0  0  0  0  0
   -3.2670   -6.3945   -0.6781 N   0  0  0  0  0  0  0  0  0  0  0  0
   -3.6680   -7.4296    0.1380 C   0  0  0  0  0  0  0  0  0  0  0  0
   -3.9153   -7.3380    1.3360 O   0  0  0  0  0  0  0  0  0  0  0  0
   -3.7876   -8.7534   -0.6189 C   0  0  0  0  0  0  0  0  0  0  0  0
   -2.4149   -9.2419   -1.1246 C   0  0  0  0  0  0  0  0  0  0  0  0
   -1.9842  -10.5355   -0.4392 C   0  0  0  0  0  0  0  0  0  0  0  0
   -3.0650  -11.6161   -0.5354 C   0  0  0  0  0  0  0  0  0  0  0  0
   -4.4355  -11.1163   -0.4031 N   0  0  0  0  0  0  0  0  0  0  0  0
   -4.4921   -9.8075    0.2478 C   0  0  0  0  0  0  0  0  0  0  0  0
   -1.4838    4.6231   -1.1541 H   0  0  0  0  0  0  0  0  0  0  0  0
   -0.3659    3.3201   -1.2049 H   0  0  0  0  0  0  0  0  0  0  0  0
   -3.7152    1.9094    1.5368 H   0  0  0  0  0  0  0  0  0  0  0  0
   -4.1711   -0.4876    1.2281 H   0  0  0  0  0  0  0  0  0  0  0  0
   -0.3224   -0.9558   -0.6892 H   0  0  0  0  0  0  0  0  0  0  0  0
   -3.0562   -2.7654    2.1351 H   0  0  0  0  0  0  0  0  0  0  0  0
   -3.4985   -5.1403    1.7739 H   0  0  0  0  0  0  0  0  0  0  0  0
   -2.1449   -2.4305   -2.0563 H   0  0  0  0  0  0  0  0  0  0  0  0
   -3.1069   -6.5713   -1.6608 H   0  0  0  0  0  0  0  0  0  0  0  0
   -4.4226   -8.5531   -1.4943 H   0  0  0  0  0  0  0  0  0  0  0  0
   -1.6317   -8.4875   -0.9886 H   0  0  0  0  0  0  0  0  0  0  0  0
   -2.4834   -9.4249   -2.2048 H   0  0  0  0  0  0  0  0  0  0  0  0
   -1.0531  -10.9039   -0.8850 H   0  0  0  0  0  0  0  0  0  0  0  0
   -1.7656  -10.3264    0.6159 H   0  0  0  0  0  0  0  0  0  0  0  0
   -2.8731  -12.3729    0.2344 H   0  0  0  0  0  0  0  0  0  0  0  0
   -2.9873  -12.1253   -1.5027 H   0  0  0  0  0  0  0  0  0  0  0  0
   -4.9955  -11.7903    0.1194 H   0  0  0  0  0  0  0  0  0  0  0  0
   -5.5429   -9.5210    0.3765 H   0  0  0  0  0  0  0  0  0  0  0  0
   -4.0661   -9.8695    1.2572 H   0  0  0  0  0  0  0  0  0  0  0  0
  1  2  1  0
  2  3  2  0
  2  4  2  0
  2  5  1  0
  5  6  2  0
  6  7  1  0
  7  8  2  0
  8  9  1  0
  9 10  2  0
 10 11  1  0
  8 12  1  0
 12 13  2  0
 13 14  1  0
 14 15  2  0
 15 16  1  0
 16 17  2  0
 15 18  1  0
 18 19  1  0
 19 20  2  0
 19 21  1  0
 21 22  1  0
 22 23  1  0
 23 24  1  0
 24 25  1  0
 25 26  1  0
 10  5  1  0
 17 12  1  0
 26 21  1  0
  1 27  1  0
  1 28  1  0
  6 29  1  0
  7 30  1  0
  9 31  1  0
 13 32  1  0
 14 33  1  0
 17 34  1  0
 18 35  1  0
 21 36  1  0
 22 37  1  0
 22 38  1  0
 23 39  1  0
 23 40  1  0
 24 41  1  0
 24 42  1  0
 25 43  1  0
 26 44  1  0
 26 45  1  0
M  END
>  <mol_id>  (20) 
Z9304515688

>  <drugclip_rank>  (20) 
21

>  <conformer>  (20) 
26

>  <align_rmsd>  (20) 
0.677

$$$$
OSSM_270823
     RDKit          3D

 51 53  0  0  0  0  0  0  0  0999 V2000
   -3.6070    0.6907   -1.0771 C   0  0  0  0  0  0  0  0  0  0  0  0
   -2.4462   -0.2643   -0.8588 C   0  0  0  0  0  0  0  0  0  0  0  0
   -2.1019   -0.8461   -2.1218 O   0  0  0  0  0  0  0  0  0  0  0  0
   -1.1707   -1.8387   -1.9538 C   0  0  0  0  0  0  0  0  0  0  0  0
    0.1785   -1.4901   -1.9100 C   0  0  0  0  0  0  0  0  0  0  0  0
    1.1492   -2.4857   -1.7754 C   0  0  0  0  0  0  0  0  0  0  0  0
   -1.5493   -3.1831   -1.9013 C   0  0  0  0  0  0  0  0  0  0  0  0
   -3.2055   -3.6558   -1.9765 Cl  0  0  0  0  0  0  0  0  0  0  0  0
   -0.5773   -4.1797   -1.7720 C   0  0  0  0  0  0  0  0  0  0  0  0
    0.7788   -3.8350   -1.7003 C   0  0  0  0  0  0  0  0  0  0  0  0
    1.7949   -4.8714   -1.5705 C   0  0  0  0  0  0  0  0  0  0  0  0
    1.9394   -5.8482   -2.5282 N   0  0  0  0  0  0  0  0  0  0  0  0
    2.9498   -6.6974   -2.3024 N   0  0  0  0  0  0  0  0  0  0  0  0
    3.4921   -6.2388   -1.1741 C   0  0  0  0  0  0  0  0  0  0  0  0
    2.8102   -5.1118   -0.6485 C   0  0  0  0  0  0  0  0  0  0  0  0
    3.1752   -4.4222    0.5804 C   0  0  0  0  0  0  0  0  0  0  0  0
    4.2652   -4.5994    1.1170 O   0  0  0  0  0  0  0  0  0  0  0  0
    2.2123   -3.5985    1.1190 N   0  0  0  0  0  0  0  0  0  0  0  0
    2.3940   -2.9778    2.4173 C   0  0  0  0  0  0  0  0  0  0  0  0
    1.5704   -1.6938    2.5765 C   0  0  0  0  0  0  0  0  0  0  0  0
    1.8934   -0.5399    1.6458 C   0  0  0  0  0  0  0  0  0  0  0  0
    0.9169    0.4545    1.4476 C   0  0  0  0  0  0  0  0  0  0  0  0
    1.1666    1.5503    0.6194 C   0  0  0  0  0  0  0  0  0  0  0  0
    3.1381   -0.3955    1.0123 C   0  0  0  0  0  0  0  0  0  0  0  0
    3.3959    0.6986    0.1818 C   0  0  0  0  0  0  0  0  0  0  0  0
    2.4111    1.6691   -0.0041 C   0  0  0  0  0  0  0  0  0  0  0  0
    2.7318    3.0503   -1.0680 S   0  0  0  0  0  0  0  0  0  0  0  0
    1.4608    3.5824   -1.5140 O   0  0  0  0  0  0  0  0  0  0  0  0
    3.7888    2.6901   -1.9857 O   0  0  0  0  0  0  0  0  0  0  0  0
    3.3446    4.1790    0.0234 N   0  0  0  0  0  0  0  0  0  0  0  0
   -4.4754    0.1518   -1.4719 H   0  0  0  0  0  0  0  0  0  0  0  0
   -3.3450    1.4602   -1.8100 H   0  0  0  0  0  0  0  0  0  0  0  0
   -3.8918    1.1792   -0.1411 H   0  0  0  0  0  0  0  0  0  0  0  0
   -2.7459   -1.0401   -0.1427 H   0  0  0  0  0  0  0  0  0  0  0  0
   -1.5894    0.2880   -0.4511 H   0  0  0  0  0  0  0  0  0  0  0  0
    0.4776   -0.4469   -1.9907 H   0  0  0  0  0  0  0  0  0  0  0  0
    2.1989   -2.1979   -1.7414 H   0  0  0  0  0  0  0  0  0  0  0  0
   -0.8810   -5.2238   -1.7277 H   0  0  0  0  0  0  0  0  0  0  0  0
    1.3872   -5.9741   -3.3708 H   0  0  0  0  0  0  0  0  0  0  0  0
    4.3604   -6.7401   -0.7631 H   0  0  0  0  0  0  0  0  0  0  0  0
    1.2673   -3.7036    0.7745 H   0  0  0  0  0  0  0  0  0  0  0  0
    2.0689   -3.7131    3.1640 H   0  0  0  0  0  0  0  0  0  0  0  0
    3.4588   -2.7913    2.5990 H   0  0  0  0  0  0  0  0  0  0  0  0
    1.6917   -1.3310    3.6054 H   0  0  0  0  0  0  0  0  0  0  0  0
    0.5097   -1.9526    2.4485 H   0  0  0  0  0  0  0  0  0  0  0  0
   -0.0537    0.3742    1.9364 H   0  0  0  0  0  0  0  0  0  0  0  0
    0.3918    2.2981    0.4681 H   0  0  0  0  0  0  0  0  0  0  0  0
    3.9267   -1.1321    1.1461 H   0  0  0  0  0  0  0  0  0  0  0  0
    4.3633    0.7839   -0.3079 H   0  0  0  0  0  0  0  0  0  0  0  0
    2.7103    4.9822    0.0511 H   0  0  0  0  0  0  0  0  0  0  0  0
    3.5106    3.7932    0.9527 H   0  0  0  0  0  0  0  0  0  0  0  0
  1  2  1  0
  2  3  1  0
  3  4  1  0
  4  5  2  0
  5  6  1  0
  4  7  1  0
  7  8  1  0
  7  9  2  0
  9 10  1  0
 10 11  1  0
 11 12  1  0
 12 13  1  0
 13 14  2  0
 11 15  2  0
 15 16  1  0
 16 17  2  0
 16 18  1  0
 18 19  1  0
 19 20  1  0
 20 21  1  0
 21 22  2  0
 22 23  1  0
 21 24  1  0
 24 25  2  0
 25 26  1  0
 26 27  1  0
 27 28  2  0
 27 29  2  0
 27 30  1  0
 10  6  2  0
 15 14  1  0
 26 23  2  0
  1 31  1  0
  1 32  1  0
  1 33  1  0
  2 34  1  0
  2 35  1  0
  5 36  1  0
  6 37  1  0
  9 38  1  0
 12 39  1  0
 14 40  1  0
 18 41  1  0
 19 42  1  0
 19 43  1  0
 20 44  1  0
 20 45  1  0
 22 46  1  0
 23 47  1  0
 24 48  1  0
 25 49  1  0
 30 50  1  0
 30 51  1  0
M  END
>  <mol_id>  (21) 
OSSM_270823

>  <drugclip_rank>  (21) 
22

>  <conformer>  (21) 
8

>  <align_rmsd>  (21) 
0.925

$$$$
MCULE-2752453438
     RDKit          3D

 49 51  0  0  0  0  0  0  0  0999 V2000
   -3.1557   -3.1508   -2.0773 C   0  0  0  0  0  0  0  0  0  0  0  0
   -2.4720   -4.2506   -1.7056 N   0  0  0  0  0  0  0  0  0  0  0  0
   -1.8233   -4.2201   -0.5286 C   0  0  0  0  0  0  0  0  0  0  0  0
   -1.7775   -3.1172    0.2820 C   0  0  0  0  0  0  0  0  0  0  0  0
   -2.4318   -2.0051   -0.1986 C   0  0  0  0  0  0  0  0  0  0  0  0
   -3.1175   -2.0151   -1.3661 N   0  0  0  0  0  0  0  0  0  0  0  0
   -2.4235   -0.7210    0.5111 C   0  0  0  0  0  0  0  0  0  0  0  0
   -2.0409    0.4515   -0.1352 C   0  0  0  0  0  0  0  0  0  0  0  0
   -2.1235    1.6541    0.5628 C   0  0  0  0  0  0  0  0  0  0  0  0
   -2.6236    1.6588    1.8697 C   0  0  0  0  0  0  0  0  0  0  0  0
   -2.9574    0.4472    2.4472 C   0  0  0  0  0  0  0  0  0  0  0  0
   -2.8441   -0.7386    1.8100 N   0  0  0  0  0  0  0  0  0  0  0  0
   -1.7003    2.9421   -0.0438 C   0  0  0  0  0  0  0  0  0  0  0  0
   -1.1187    2.7901   -1.2483 O   0  0  0  0  0  0  0  0  0  0  0  0
   -1.8242    4.0413    0.4627 O   0  0  0  0  0  0  0  0  0  0  0  0
   -3.9318   -3.1682   -3.2492 N   0  0  0  0  0  0  0  0  0  0  0  0
   -5.2211   -2.4878   -3.0563 C   0  0  0  0  0  0  0  0  0  0  0  0
   -5.9428   -2.3539   -4.3947 C   0  0  0  0  0  0  0  0  0  0  0  0
   -6.1111   -3.7112   -5.0950 C   0  0  0  0  0  0  0  0  0  0  0  0
   -6.5872   -3.4989   -6.4398 O   0  0  0  0  0  0  0  0  0  0  0  0
   -4.7257   -4.3753   -5.2302 C   0  0  0  0  0  0  0  0  0  0  0  0
   -3.9832   -4.4786   -3.8981 C   0  0  0  0  0  0  0  0  0  0  0  0
   -7.1126   -4.6640   -4.3588 C   0  0  0  0  0  0  0  0  0  0  0  0
   -8.4086   -4.0766   -3.9326 N   0  0  0  0  0  0  0  0  0  0  0  0
   -9.1400   -5.0493   -3.1083 C   0  0  0  0  0  0  0  0  0  0  0  0
   -9.2406   -3.6939   -5.0795 C   0  0  0  0  0  0  0  0  0  0  0  0
   -1.3206   -5.1440   -0.2546 H   0  0  0  0  0  0  0  0  0  0  0  0
   -1.2429   -3.1147    1.2221 H   0  0  0  0  0  0  0  0  0  0  0  0
   -1.6793    0.4143   -1.1611 H   0  0  0  0  0  0  0  0  0  0  0  0
   -2.7380    2.5827    2.4282 H   0  0  0  0  0  0  0  0  0  0  0  0
   -3.3685    0.3956    3.4593 H   0  0  0  0  0  0  0  0  0  0  0  0
   -0.8843    3.7038   -1.5283 H   0  0  0  0  0  0  0  0  0  0  0  0
   -5.0862   -1.4700   -2.6655 H   0  0  0  0  0  0  0  0  0  0  0  0
   -5.8398   -3.0392   -2.3319 H   0  0  0  0  0  0  0  0  0  0  0  0
   -6.9109   -1.8558   -4.2554 H   0  0  0  0  0  0  0  0  0  0  0  0
   -5.3674   -1.6772   -5.0450 H   0  0  0  0  0  0  0  0  0  0  0  0
   -6.1056   -2.7375   -6.8012 H   0  0  0  0  0  0  0  0  0  0  0  0
   -4.8222   -5.3707   -5.6840 H   0  0  0  0  0  0  0  0  0  0  0  0
   -4.1129   -3.7930   -5.9351 H   0  0  0  0  0  0  0  0  0  0  0  0
   -4.4632   -5.2228   -3.2482 H   0  0  0  0  0  0  0  0  0  0  0  0
   -2.9687   -4.8392   -4.1186 H   0  0  0  0  0  0  0  0  0  0  0  0
   -7.3041   -5.5395   -4.9981 H   0  0  0  0  0  0  0  0  0  0  0  0
   -6.6231   -5.0417   -3.4537 H   0  0  0  0  0  0  0  0  0  0  0  0
  -10.0779   -4.6145   -2.7407 H   0  0  0  0  0  0  0  0  0  0  0  0
   -9.3776   -5.9652   -3.6600 H   0  0  0  0  0  0  0  0  0  0  0  0
   -8.5591   -5.3217   -2.2202 H   0  0  0  0  0  0  0  0  0  0  0  0
   -8.7969   -2.8587   -5.6265 H   0  0  0  0  0  0  0  0  0  0  0  0
  -10.2213   -3.3384   -4.7414 H   0  0  0  0  0  0  0  0  0  0  0  0
   -9.4070   -4.5285   -5.7715 H   0  0  0  0  0  0  0  0  0  0  0  0
  1  2  2  0
  2  3  1  0
  3  4  2  0
  4  5  1  0
  5  6  2  0
  5  7  1  0
  7  8  2  0
  8  9  1  0
  9 10  2  0
 10 11  1  0
 11 12  2  0
  9 13  1  0
 13 14  1  0
 13 15  2  0
  1 16  1  0
 16 17  1  0
 17 18  1  0
 18 19  1  0
 19 20  1  0
 19 21  1  0
 21 22  1  0
 19 23  1  0
 23 24  1  0
 24 25  1  0
 24 26  1  0
  6  1  1  0
 12  7  1  0
 22 16  1  0
  3 27  1  0
  4 28  1  0
  8 29  1  0
 10 30  1  0
 11 31  1  0
 14 32  1  0
 17 33  1  0
 17 34  1  0
 18 35  1  0
 18 36  1  0
 20 37  1  0
 21 38  1  0
 21 39  1  0
 22 40  1  0
 22 41  1  0
 23 42  1  0
 23 43  1  0
 25 44  1  0
 25 45  1  0
 25 46  1  0
 26 47  1  0
 26 48  1  0
 26 49  1  0
M  END
>  <mol_id>  (22) 
MCULE-2752453438

>  <drugclip_rank>  (22) 
23

>  <conformer>  (22) 
13

>  <align_rmsd>  (22) 
0.429

$$$$
Z9304513756
     RDKit          3D

 45 47  0  0  0  0  0  0  0  0999 V2000
   -2.6108  -10.6528   -0.7273 N   0  0  0  0  0  0  0  0  0  0  0  0
   -2.9965   -9.2660   -0.9971 C   0  0  2  0  0  0  0  0  0  0  0  0
   -4.3021   -9.2090   -1.7965 C   0  0  0  0  0  0  0  0  0  0  0  0
   -4.7690   -7.7721   -2.0618 C   0  0  0  0  0  0  0  0  0  0  0  0
   -3.6531   -6.7171   -2.0005 C   0  0  2  0  0  0  0  0  0  0  0  0
   -2.3198   -7.2955   -2.5021 C   0  0  0  0  0  0  0  0  0  0  0  0
   -1.8590   -8.5458   -1.7436 C   0  0  0  0  0  0  0  0  0  0  0  0
   -3.5323   -6.3078   -0.6199 O   0  0  0  0  0  0  0  0  0  0  0  0
   -3.2793   -4.9632   -0.4505 C   0  0  0  0  0  0  0  0  0  0  0  0
   -3.6629   -4.4178    0.7632 C   0  0  0  0  0  0  0  0  0  0  0  0
   -3.4011   -3.0682    0.9943 C   0  0  0  0  0  0  0  0  0  0  0  0
   -2.7469   -2.3058    0.0187 C   0  0  0  0  0  0  0  0  0  0  0  0
   -2.3831   -2.9669   -1.1526 C   0  0  0  0  0  0  0  0  0  0  0  0
   -2.6333   -4.2726   -1.4125 N   0  0  0  0  0  0  0  0  0  0  0  0
   -2.4766   -0.8814    0.2190 C   0  0  0  0  0  0  0  0  0  0  0  0
   -3.5258    0.0556    0.1700 C   0  0  0  0  0  0  0  0  0  0  0  0
   -3.2773    1.4200    0.3461 C   0  0  0  0  0  0  0  0  0  0  0  0
   -1.9659    1.8573    0.5737 C   0  0  0  0  0  0  0  0  0  0  0  0
   -0.9105    0.9449    0.6499 C   0  0  0  0  0  0  0  0  0  0  0  0
   -1.1783   -0.4103    0.4643 C   0  0  0  0  0  0  0  0  0  0  0  0
   -0.1508   -1.2735    0.5169 F   0  0  0  0  0  0  0  0  0  0  0  0
   -1.6403    3.5885    0.7842 S   0  0  0  0  0  0  0  0  0  0  0  0
   -2.8811    4.2446    1.1276 O   0  0  0  0  0  0  0  0  0  0  0  0
   -0.4299    3.7332    1.5657 O   0  0  0  0  0  0  0  0  0  0  0  0
   -1.2450    4.0358   -0.7915 N   0  0  0  0  0  0  0  0  0  0  0  0
   -2.6187  -11.1865   -1.5993 H   0  0  0  0  0  0  0  0  0  0  0  0
   -3.3193  -11.0886   -0.1282 H   0  0  0  0  0  0  0  0  0  0  0  0
   -3.1465   -8.7793   -0.0243 H   0  0  0  0  0  0  0  0  0  0  0  0
   -4.1716   -9.7184   -2.7646 H   0  0  0  0  0  0  0  0  0  0  0  0
   -5.1062   -9.7555   -1.2736 H   0  0  0  0  0  0  0  0  0  0  0  0
   -5.2304   -7.7515   -3.0589 H   0  0  0  0  0  0  0  0  0  0  0  0
   -5.5535   -7.5147   -1.3407 H   0  0  0  0  0  0  0  0  0  0  0  0
   -3.9746   -5.8814   -2.6350 H   0  0  0  0  0  0  0  0  0  0  0  0
   -2.4208   -7.5487   -3.5703 H   0  0  0  0  0  0  0  0  0  0  0  0
   -1.5248   -6.5492   -2.4372 H   0  0  0  0  0  0  0  0  0  0  0  0
   -1.0769   -8.2708   -1.0227 H   0  0  0  0  0  0  0  0  0  0  0  0
   -1.3772   -9.2186   -2.4693 H   0  0  0  0  0  0  0  0  0  0  0  0
   -4.1594   -5.0300    1.5106 H   0  0  0  0  0  0  0  0  0  0  0  0
   -3.6921   -2.6253    1.9433 H   0  0  0  0  0  0  0  0  0  0  0  0
   -1.8562   -2.4436   -1.9473 H   0  0  0  0  0  0  0  0  0  0  0  0
   -4.5493   -0.2761   -0.0115 H   0  0  0  0  0  0  0  0  0  0  0  0
   -4.1055    2.1304    0.3055 H   0  0  0  0  0  0  0  0  0  0  0  0
    0.1122    1.2661    0.8467 H   0  0  0  0  0  0  0  0  0  0  0  0
   -0.2608    4.3131   -0.8441 H   0  0  0  0  0  0  0  0  0  0  0  0
   -1.4869    3.3377   -1.4956 H   0  0  0  0  0  0  0  0  0  0  0  0
  1  2  1  0
  2  3  1  0
  3  4  1  0
  4  5  1  0
  5  6  1  0
  6  7  1  0
  5  8  1  0
  8  9  1  0
  9 10  2  0
 10 11  1  0
 11 12  2  0
 12 13  1  0
 13 14  2  0
 12 15  1  0
 15 16  2  0
 16 17  1  0
 17 18  2  0
 18 19  1  0
 19 20  2  0
 20 21  1  0
 18 22  1  0
 22 23  2  0
 22 24  2  0
 22 25  1  0
  7  2  1  0
 14  9  1  0
 20 15  1  0
  1 26  1  0
  1 27  1  0
  2 28  1  1
  3 29  1  0
  3 30  1  0
  4 31  1  0
  4 32  1  0
  5 33  1  6
  6 34  1  0
  6 35  1  0
  7 36  1  0
  7 37  1  0
 10 38  1  0
 11 39  1  0
 13 40  1  0
 16 41  1  0
 17 42  1  0
 19 43  1  0
 25 44  1  0
 25 45  1  0
M  END
>  <mol_id>  (23) 
Z9304513756

>  <drugclip_rank>  (23) 
24

>  <conformer>  (23) 
30

>  <align_rmsd>  (23) 
0.683

$$$$
MCULE-3368426694
     RDKit          3D

 50 52  0  0  0  0  0  0  0  0999 V2000
   -1.2137   -1.5606   -0.5253 C   0  0  0  0  0  0  0  0  0  0  0  0
   -0.6635   -2.4701    0.3917 C   0  0  0  0  0  0  0  0  0  0  0  0
   -0.0498   -3.6507   -0.0404 C   0  0  0  0  0  0  0  0  0  0  0  0
    0.0300   -3.9520   -1.4049 C   0  0  0  0  0  0  0  0  0  0  0  0
    0.6848   -5.2329   -1.8780 C   0  0  0  0  0  0  0  0  0  0  0  0
    1.8042   -5.0037   -2.8059 N   0  0  0  0  0  0  0  0  0  0  0  0
    2.9606   -4.3812   -2.1224 C   0  0  0  0  0  0  0  0  0  0  0  0
    4.1562   -4.2273   -3.0764 C   0  0  0  0  0  0  0  0  0  0  0  0
    4.5506   -5.4929   -3.6234 O   0  0  0  0  0  0  0  0  0  0  0  0
    3.4519   -6.0825   -4.3301 C   0  0  0  0  0  0  0  0  0  0  0  0
    2.2424   -6.2829   -3.4039 C   0  0  0  0  0  0  0  0  0  0  0  0
   -0.5216   -3.0521   -2.3259 C   0  0  0  0  0  0  0  0  0  0  0  0
   -1.1325   -1.8720   -1.8912 C   0  0  0  0  0  0  0  0  0  0  0  0
   -1.8533   -0.3177   -0.0680 C   0  0  0  0  0  0  0  0  0  0  0  0
   -2.8954   -0.3402    0.8609 C   0  0  0  0  0  0  0  0  0  0  0  0
   -3.4599    0.8595    1.2535 C   0  0  0  0  0  0  0  0  0  0  0  0
   -3.0615    2.0618    0.7925 N   0  0  0  0  0  0  0  0  0  0  0  0
   -2.0530    2.0932   -0.0920 C   0  0  0  0  0  0  0  0  0  0  0  0
   -1.4345    0.9317   -0.5479 C   0  0  0  0  0  0  0  0  0  0  0  0
   -1.5917    3.3112   -0.6118 N   0  0  0  0  0  0  0  0  0  0  0  0
   -1.9898    4.5669   -0.1941 C   0  0  0  0  0  0  0  0  0  0  0  0
   -2.8062    4.8203    0.6895 O   0  0  0  0  0  0  0  0  0  0  0  0
   -1.4345    5.7059   -1.0051 C   0  0  0  0  0  0  0  0  0  0  0  0
    0.3206    5.6029   -1.1546 S   0  0  0  0  0  0  0  0  0  0  0  0
    0.6140    4.4041   -1.9241 O   0  0  0  0  0  0  0  0  0  0  0  0
    0.9246    5.8170    0.1437 O   0  0  0  0  0  0  0  0  0  0  0  0
    0.7147    7.0056   -2.1701 C   0  0  0  0  0  0  0  0  0  0  0  0
   -0.6962   -2.2575    1.4587 H   0  0  0  0  0  0  0  0  0  0  0  0
    0.3701   -4.3286    0.6993 H   0  0  0  0  0  0  0  0  0  0  0  0
    1.0092   -5.8361   -1.0195 H   0  0  0  0  0  0  0  0  0  0  0  0
   -0.0999   -5.8139   -2.3814 H   0  0  0  0  0  0  0  0  0  0  0  0
    2.6967   -3.3876   -1.7442 H   0  0  0  0  0  0  0  0  0  0  0  0
    3.2668   -4.9998   -1.2685 H   0  0  0  0  0  0  0  0  0  0  0  0
    3.9252   -3.5351   -3.8952 H   0  0  0  0  0  0  0  0  0  0  0  0
    5.0146   -3.8220   -2.5312 H   0  0  0  0  0  0  0  0  0  0  0  0
    3.1948   -5.4538   -5.1912 H   0  0  0  0  0  0  0  0  0  0  0  0
    3.7880   -7.0508   -4.7145 H   0  0  0  0  0  0  0  0  0  0  0  0
    1.4245   -6.7227   -3.9860 H   0  0  0  0  0  0  0  0  0  0  0  0
    2.5156   -6.9922   -2.6116 H   0  0  0  0  0  0  0  0  0  0  0  0
   -0.4690   -3.2675   -3.3914 H   0  0  0  0  0  0  0  0  0  0  0  0
   -1.5558   -1.1992   -2.6342 H   0  0  0  0  0  0  0  0  0  0  0  0
   -3.2727   -1.2733    1.2663 H   0  0  0  0  0  0  0  0  0  0  0  0
   -4.2751    0.8894    1.9707 H   0  0  0  0  0  0  0  0  0  0  0  0
   -0.6153    0.9876   -1.2588 H   0  0  0  0  0  0  0  0  0  0  0  0
   -0.8276    3.2425   -1.2807 H   0  0  0  0  0  0  0  0  0  0  0  0
   -1.8754    5.6867   -2.0054 H   0  0  0  0  0  0  0  0  0  0  0  0
   -1.6680    6.6559   -0.5156 H   0  0  0  0  0  0  0  0  0  0  0  0
    0.1918    6.9098   -3.1233 H   0  0  0  0  0  0  0  0  0  0  0  0
    0.4090    7.9149   -1.6494 H   0  0  0  0  0  0  0  0  0  0  0  0
    1.7941    7.0138   -2.3350 H   0  0  0  0  0  0  0  0  0  0  0  0
  1  2  2  0
  2  3  1  0
  3  4  2  0
  4  5  1  0
  5  6  1  0
  6  7  1  0
  7  8  1  0
  8  9  1  0
  9 10  1  0
 10 11  1  0
  4 12  1  0
 12 13  2  0
  1 14  1  0
 14 15  2  0
 15 16  1  0
 16 17  2  0
 17 18  1  0
 18 19  2  0
 18 20  1  0
 20 21  1  0
 21 22  2  0
 21 23  1  0
 23 24  1  0
 24 25  2  0
 24 26  2  0
 24 27  1  0
 13  1  1  0
 19 14  1  0
 11  6  1  0
  2 28  1  0
  3 29  1  0
  5 30  1  0
  5 31  1  0
  7 32  1  0
  7 33  1  0
  8 34  1  0
  8 35  1  0
 10 36  1  0
 10 37  1  0
 11 38  1  0
 11 39  1  0
 12 40  1  0
 13 41  1  0
 15 42  1  0
 16 43  1  0
 19 44  1  0
 20 45  1  0
 23 46  1  0
 23 47  1  0
 27 48  1  0
 27 49  1  0
 27 50  1  0
M  END
>  <mol_id>  (24) 
MCULE-3368426694

>  <drugclip_rank>  (24) 
25

>  <conformer>  (24) 
26

>  <align_rmsd>  (24) 
0.686

$$$$
MCULE-9373509363
     RDKit          3D

 56 59  0  0  0  0  0  0  0  0999 V2000
   -1.3169   -1.7047   -0.4121 C   0  0  0  0  0  0  0  0  0  0  0  0
   -0.7887   -1.7633   -1.7148 C   0  0  0  0  0  0  0  0  0  0  0  0
   -0.2186   -2.9347   -2.2258 C   0  0  0  0  0  0  0  0  0  0  0  0
   -0.1594   -4.0927   -1.4452 C   0  0  0  0  0  0  0  0  0  0  0  0
    0.4607   -5.3573   -1.9889 C   0  0  0  0  0  0  0  0  0  0  0  0
    1.8851   -5.5850   -1.5452 C   0  0  0  0  0  0  0  0  0  0  0  0
    2.4474   -6.6316   -2.1894 O   0  0  0  0  0  0  0  0  0  0  0  0
    2.5255   -4.9764   -0.7053 O   0  0  0  0  0  0  0  0  0  0  0  0
   -0.6651   -4.0497   -0.1418 C   0  0  0  0  0  0  0  0  0  0  0  0
   -1.2329   -2.8739    0.3649 C   0  0  0  0  0  0  0  0  0  0  0  0
   -1.9174   -0.4567    0.1015 C   0  0  0  0  0  0  0  0  0  0  0  0
   -1.4397    0.7040   -0.4272 N   0  0  0  0  0  0  0  0  0  0  0  0
   -1.9687    1.8618    0.0315 C   0  0  0  0  0  0  0  0  0  0  0  0
   -2.9675    1.8630    0.9987 C   0  0  0  0  0  0  0  0  0  0  0  0
   -3.4710    0.7223    1.5341 N   0  0  0  0  0  0  0  0  0  0  0  0
   -2.9258   -0.4245    1.0627 C   0  0  0  0  0  0  0  0  0  0  0  0
   -1.4178    3.0004   -0.5520 N   0  0  0  0  0  0  0  0  0  0  0  0
   -1.7032    4.3213   -0.2810 C   0  0  0  0  0  0  0  0  0  0  0  0
   -2.5610    4.7135    0.5034 O   0  0  0  0  0  0  0  0  0  0  0  0
   -0.8728    5.2741   -1.1692 C   0  0  0  0  0  0  0  0  0  0  0  0
   -0.7373    6.6909   -0.5686 C   0  0  0  0  0  0  0  0  0  0  0  0
    0.3014    6.7623    0.4744 N   0  0  0  0  0  0  0  0  0  0  0  0
    0.4049    8.0734    1.1260 C   0  0  0  0  0  0  0  0  0  0  0  0
    0.8182    9.2438    0.2590 C   0  0  0  0  0  0  0  0  0  0  0  0
    2.1728    9.5690    0.0920 C   0  0  0  0  0  0  0  0  0  0  0  0
    2.5516   10.6492   -0.7070 C   0  0  0  0  0  0  0  0  0  0  0  0
    1.5815   11.4196   -1.3448 C   0  0  0  0  0  0  0  0  0  0  0  0
    0.2322   11.1129   -1.1821 C   0  0  0  0  0  0  0  0  0  0  0  0
   -0.1478   10.0328   -0.3838 C   0  0  0  0  0  0  0  0  0  0  0  0
    1.5711    6.2453   -0.0469 C   0  0  0  0  0  0  0  0  0  0  0  0
    1.3774    4.8067   -0.5438 C   0  0  0  0  0  0  0  0  0  0  0  0
    0.3914    4.7288   -1.5848 O   0  0  0  0  0  0  0  0  0  0  0  0
   -0.8198   -0.8799   -2.3515 H   0  0  0  0  0  0  0  0  0  0  0  0
    0.1788   -2.9268   -3.2385 H   0  0  0  0  0  0  0  0  0  0  0  0
   -0.1413   -6.2177   -1.6733 H   0  0  0  0  0  0  0  0  0  0  0  0
    0.4423   -5.3277   -3.0851 H   0  0  0  0  0  0  0  0  0  0  0  0
    3.3512   -6.6775   -1.8114 H   0  0  0  0  0  0  0  0  0  0  0  0
   -0.6089   -4.9276    0.4987 H   0  0  0  0  0  0  0  0  0  0  0  0
   -1.5871   -2.8871    1.3936 H   0  0  0  0  0  0  0  0  0  0  0  0
   -3.4101    2.7717    1.3872 H   0  0  0  0  0  0  0  0  0  0  0  0
   -3.3483   -1.3300    1.4841 H   0  0  0  0  0  0  0  0  0  0  0  0
   -0.6774    2.8083   -1.2186 H   0  0  0  0  0  0  0  0  0  0  0  0
   -1.4647    5.3679   -2.0894 H   0  0  0  0  0  0  0  0  0  0  0  0
   -0.4745    7.3677   -1.3913 H   0  0  0  0  0  0  0  0  0  0  0  0
   -1.7007    7.0227   -0.1646 H   0  0  0  0  0  0  0  0  0  0  0  0
    1.1052    7.9963    1.9687 H   0  0  0  0  0  0  0  0  0  0  0  0
   -0.5562    8.3093    1.6025 H   0  0  0  0  0  0  0  0  0  0  0  0
    2.9419    8.9804    0.5865 H   0  0  0  0  0  0  0  0  0  0  0  0
    3.6041   10.8908   -0.8301 H   0  0  0  0  0  0  0  0  0  0  0  0
    1.8769   12.2610   -1.9660 H   0  0  0  0  0  0  0  0  0  0  0  0
   -0.5253   11.7163   -1.6755 H   0  0  0  0  0  0  0  0  0  0  0  0
   -1.2055    9.8086   -0.2634 H   0  0  0  0  0  0  0  0  0  0  0  0
    2.3358    6.2456    0.7377 H   0  0  0  0  0  0  0  0  0  0  0  0
    1.9297    6.8607   -0.8805 H   0  0  0  0  0  0  0  0  0  0  0  0
    1.0954    4.1385    0.2783 H   0  0  0  0  0  0  0  0  0  0  0  0
    2.3182    4.4320   -0.9600 H   0  0  0  0  0  0  0  0  0  0  0  0
  1  2  2  0
  2  3  1  0
  3  4  2  0
  4  5  1  0
  5  6  1  0
  6  7  1  0
  6  8  2  0
  4  9  1  0
  9 10  2  0
  1 11  1  0
 11 12  2  0
 12 13  1  0
 13 14  2  0
 14 15  1  0
 15 16  2  0
 13 17  1  0
 17 18  1  0
 18 19  2  0
 18 20  1  0
 20 21  1  0
 21 22  1  0
 22 23  1  0
 23 24  1  0
 24 25  2  0
 25 26  1  0
 26 27  2  0
 27 28  1  0
 28 29  2  0
 22 30  1  0
 30 31  1  0
 31 32  1  0
 10  1  1  0
 16 11  1  0
 32 20  1  0
 29 24  1  0
  2 33  1  0
  3 34  1  0
  5 35  1  0
  5 36  1  0
  7 37  1  0
  9 38  1  0
 10 39  1  0
 14 40  1  0
 16 41  1  0
 17 42  1  0
 20 43  1  0
 21 44  1  0
 21 45  1  0
 23 46  1  0
 23 47  1  0
 25 48  1  0
 26 49  1  0
 27 50  1  0
 28 51  1  0
 29 52  1  0
 30 53  1  0
 30 54  1  0
 31 55  1  0
 31 56  1  0
M  END
>  <mol_id>  (25) 
MCULE-9373509363

>  <drugclip_rank>  (25) 
26

>  <conformer>  (25) 
8

>  <align_rmsd>  (25) 
0.71

$$$$
MCULE-4134263693
     RDKit          3D

 50 53  0  0  0  0  0  0  0  0999 V2000
    1.3177   -0.8816   -0.6049 C   0  0  0  0  0  0  0  0  0  0  0  0
    2.5118   -1.6218   -0.5329 C   0  0  0  0  0  0  0  0  0  0  0  0
    3.7600   -1.0026   -0.6544 C   0  0  0  0  0  0  0  0  0  0  0  0
    3.8397    0.3740   -0.8439 C   0  0  0  0  0  0  0  0  0  0  0  0
    2.6636    1.1229   -0.9000 C   0  0  0  0  0  0  0  0  0  0  0  0
    1.4112    0.5064   -0.7952 C   0  0  0  0  0  0  0  0  0  0  0  0
    2.7569    2.8786   -1.1554 S   0  0  0  0  0  0  0  0  0  0  0  0
    1.4959    3.3066   -1.7301 O   0  0  0  0  0  0  0  0  0  0  0  0
    4.0129    3.1575   -1.8251 O   0  0  0  0  0  0  0  0  0  0  0  0
    2.8562    3.5223    0.4943 C   0  0  0  0  0  0  0  0  0  0  0  0
    0.0071   -1.5458   -0.4913 C   0  0  0  0  0  0  0  0  0  0  0  0
   -0.9443   -1.1027    0.4543 C   0  0  0  0  0  0  0  0  0  0  0  0
   -2.2029   -1.7057    0.5967 C   0  0  0  0  0  0  0  0  0  0  0  0
   -2.4546   -2.7704   -0.2548 C   0  0  0  0  0  0  0  0  0  0  0  0
   -1.5672   -3.2513   -1.2002 C   0  0  0  0  0  0  0  0  0  0  0  0
   -0.3143   -2.6368   -1.3294 C   0  0  0  0  0  0  0  0  0  0  0  0
   -2.1306   -4.3079   -1.8708 N   0  0  0  0  0  0  0  0  0  0  0  0
   -3.3196   -4.4264   -1.3159 C   0  0  0  0  0  0  0  0  0  0  0  0
   -3.5857   -3.5257   -0.3255 O   0  0  0  0  0  0  0  0  0  0  0  0
   -4.2503   -5.3516   -1.6675 N   0  0  0  0  0  0  0  0  0  0  0  0
   -5.4591   -5.5190   -1.0370 C   0  0  0  0  0  0  0  0  0  0  0  0
   -5.8992   -4.8650   -0.0963 O   0  0  0  0  0  0  0  0  0  0  0  0
   -6.3009   -6.6284   -1.6849 C   0  0  0  0  0  0  0  0  0  0  0  0
   -5.4384   -7.6855   -2.2726 N   0  0  0  0  0  0  0  0  0  0  0  0
   -4.8622   -8.5724   -1.2276 C   0  0  0  0  0  0  0  0  0  0  0  0
   -5.8610   -9.5615   -0.5987 C   0  0  0  0  0  0  0  0  0  0  0  0
   -6.5241  -10.3412   -1.5996 O   0  0  0  0  0  0  0  0  0  0  0  0
   -7.1943   -9.4970   -2.5413 C   0  0  0  0  0  0  0  0  0  0  0  0
   -6.2067   -8.5314   -3.2169 C   0  0  0  0  0  0  0  0  0  0  0  0
    2.4771   -2.6997   -0.3796 H   0  0  0  0  0  0  0  0  0  0  0  0
    4.6678   -1.6000   -0.6074 H   0  0  0  0  0  0  0  0  0  0  0  0
    4.8127    0.8479   -0.9547 H   0  0  0  0  0  0  0  0  0  0  0  0
    0.5040    1.1031   -0.8820 H   0  0  0  0  0  0  0  0  0  0  0  0
    2.9164    4.6109    0.4300 H   0  0  0  0  0  0  0  0  0  0  0  0
    3.7528    3.1294    0.9776 H   0  0  0  0  0  0  0  0  0  0  0  0
    1.9593    3.2324    1.0450 H   0  0  0  0  0  0  0  0  0  0  0  0
   -0.7020   -0.2681    1.1122 H   0  0  0  0  0  0  0  0  0  0  0  0
   -2.9329   -1.3689    1.3220 H   0  0  0  0  0  0  0  0  0  0  0  0
    0.3822   -3.0006   -2.0780 H   0  0  0  0  0  0  0  0  0  0  0  0
   -3.9943   -6.0159   -2.3879 H   0  0  0  0  0  0  0  0  0  0  0  0
   -7.0019   -7.0226   -0.9426 H   0  0  0  0  0  0  0  0  0  0  0  0
   -6.8813   -6.1341   -2.4739 H   0  0  0  0  0  0  0  0  0  0  0  0
   -4.3742   -7.9861   -0.4408 H   0  0  0  0  0  0  0  0  0  0  0  0
   -4.0647   -9.1530   -1.7095 H   0  0  0  0  0  0  0  0  0  0  0  0
   -6.6108   -9.0487    0.0137 H   0  0  0  0  0  0  0  0  0  0  0  0
   -5.3248  -10.2559    0.0562 H   0  0  0  0  0  0  0  0  0  0  0  0
   -7.6499  -10.1447   -3.2972 H   0  0  0  0  0  0  0  0  0  0  0  0
   -8.0050   -8.9604   -2.0354 H   0  0  0  0  0  0  0  0  0  0  0  0
   -6.7297   -7.9077   -3.9513 H   0  0  0  0  0  0  0  0  0  0  0  0
   -5.4784   -9.1240   -3.7856 H   0  0  0  0  0  0  0  0  0  0  0  0
  1  2  2  0
  2  3  1  0
  3  4  2  0
  4  5  1  0
  5  6  2  0
  5  7  1  0
  7  8  2  0
  7  9  2  0
  7 10  1  0
  1 11  1  0
 11 12  2  0
 12 13  1  0
 13 14  2  0
 14 15  1  0
 15 16  2  0
 15 17  1  0
 17 18  2  0
 18 19  1  0
 18 20  1  0
 20 21  1  0
 21 22  2  0
 21 23  1  0
 23 24  1  0
 24 25  1  0
 25 26  1  0
 26 27  1  0
 27 28  1  0
 28 29  1  0
  6  1  1  0
 16 11  1  0
 29 24  1  0
 19 14  1  0
  2 30  1  0
  3 31  1  0
  4 32  1  0
  6 33  1  0
 10 34  1  0
 10 35  1  0
 10 36  1  0
 12 37  1  0
 13 38  1  0
 16 39  1  0
 20 40  1  0
 23 41  1  0
 23 42  1  0
 25 43  1  0
 25 44  1  0
 26 45  1  0
 26 46  1  0
 28 47  1  0
 28 48  1  0
 29 49  1  0
 29 50  1  0
M  END
>  <mol_id>  (26) 
MCULE-4134263693

>  <drugclip_rank>  (26) 
27

>  <conformer>  (26) 
13

>  <align_rmsd>  (26) 
0.71

$$$$
MCULE-6110905834
     RDKit          3D

 49 51  0  0  0  0  0  0  0  0999 V2000
   -2.9730   -1.9834   -1.5252 N   0  0  0  0  0  0  0  0  0  0  0  0
   -2.4356   -1.9862   -0.2815 C   0  0  0  0  0  0  0  0  0  0  0  0
   -1.9185   -3.1354    0.2990 C   0  0  0  0  0  0  0  0  0  0  0  0
   -1.9435   -4.2680   -0.4742 C   0  0  0  0  0  0  0  0  0  0  0  0
   -2.4694   -4.2957   -1.7125 N   0  0  0  0  0  0  0  0  0  0  0  0
   -3.0012   -3.1463   -2.1858 C   0  0  0  0  0  0  0  0  0  0  0  0
   -3.6836   -3.1251   -3.4035 N   0  0  0  0  0  0  0  0  0  0  0  0
   -4.4821   -4.3320   -3.6311 C   0  0  0  0  0  0  0  0  0  0  0  0
   -5.8047   -3.9892   -4.4314 C   0  0  0  0  0  0  0  0  0  0  0  0
   -6.6353   -5.2936   -4.4710 C   0  0  0  0  0  0  0  0  0  0  0  0
   -7.7959   -5.2808   -5.4557 C   0  0  0  0  0  0  0  0  0  0  0  0
   -7.6156   -4.3821   -6.5417 O   0  0  0  0  0  0  0  0  0  0  0  0
   -6.2653   -4.2804   -6.9697 C   0  0  0  0  0  0  0  0  0  0  0  0
   -5.3722   -3.6482   -5.8971 C   0  0  0  0  0  0  0  0  0  0  0  0
   -6.4694   -2.8177   -3.7635 N   0  0  0  0  0  0  0  0  0  0  0  0
   -6.9007   -3.0557   -2.3786 C   0  0  0  0  0  0  0  0  0  0  0  0
   -7.5752   -2.1813   -4.4956 C   0  0  0  0  0  0  0  0  0  0  0  0
   -2.4472   -0.6986    0.4340 C   0  0  0  0  0  0  0  0  0  0  0  0
   -2.1622    0.4874   -0.2223 C   0  0  0  0  0  0  0  0  0  0  0  0
   -2.2217    1.6822    0.4939 C   0  0  0  0  0  0  0  0  0  0  0  0
   -2.6060    1.6671    1.8363 C   0  0  0  0  0  0  0  0  0  0  0  0
   -2.8611    0.4441    2.4184 C   0  0  0  0  0  0  0  0  0  0  0  0
   -2.7688   -0.7287    1.7526 N   0  0  0  0  0  0  0  0  0  0  0  0
   -1.8844    2.9916   -0.1427 C   0  0  0  0  0  0  0  0  0  0  0  0
   -1.0551    2.8462   -1.1919 O   0  0  0  0  0  0  0  0  0  0  0  0
   -2.2459    4.0919    0.2394 O   0  0  0  0  0  0  0  0  0  0  0  0
   -1.5001   -3.1401    1.2894 H   0  0  0  0  0  0  0  0  0  0  0  0
   -1.5271   -5.2192   -0.1125 H   0  0  0  0  0  0  0  0  0  0  0  0
   -4.2893   -2.2901   -3.3726 H   0  0  0  0  0  0  0  0  0  0  0  0
   -4.7609   -4.8235   -2.6892 H   0  0  0  0  0  0  0  0  0  0  0  0
   -3.8755   -5.0594   -4.1854 H   0  0  0  0  0  0  0  0  0  0  0  0
   -6.9834   -5.5951   -3.4747 H   0  0  0  0  0  0  0  0  0  0  0  0
   -5.9635   -6.1092   -4.7851 H   0  0  0  0  0  0  0  0  0  0  0  0
   -8.7177   -4.9904   -4.9481 H   0  0  0  0  0  0  0  0  0  0  0  0
   -7.9670   -6.2847   -5.8554 H   0  0  0  0  0  0  0  0  0  0  0  0
   -6.2428   -3.6656   -7.8818 H   0  0  0  0  0  0  0  0  0  0  0  0
   -5.8978   -5.2784   -7.2482 H   0  0  0  0  0  0  0  0  0  0  0  0
   -4.3385   -3.9788   -6.0974 H   0  0  0  0  0  0  0  0  0  0  0  0
   -5.3311   -2.5576   -6.0465 H   0  0  0  0  0  0  0  0  0  0  0  0
   -6.0838   -3.4116   -1.7365 H   0  0  0  0  0  0  0  0  0  0  0  0
   -7.2303   -2.1109   -1.9296 H   0  0  0  0  0  0  0  0  0  0  0  0
   -7.7361   -3.7669   -2.3109 H   0  0  0  0  0  0  0  0  0  0  0  0
   -8.4761   -2.8110   -4.5335 H   0  0  0  0  0  0  0  0  0  0  0  0
   -7.3091   -1.8749   -5.5135 H   0  0  0  0  0  0  0  0  0  0  0  0
   -7.8612   -1.2493   -3.9883 H   0  0  0  0  0  0  0  0  0  0  0  0
   -1.8990    0.4809   -1.2813 H   0  0  0  0  0  0  0  0  0  0  0  0
   -2.6861    2.5870    2.4071 H   0  0  0  0  0  0  0  0  0  0  0  0
   -3.1675    0.3732    3.4655 H   0  0  0  0  0  0  0  0  0  0  0  0
   -0.8823    3.7778   -1.5062 H   0  0  0  0  0  0  0  0  0  0  0  0
  1  2  2  0
  2  3  1  0
  3  4  2  0
  4  5  1  0
  5  6  2  0
  6  7  1  0
  7  8  1  0
  8  9  1  0
  9 10  1  0
 10 11  1  0
 11 12  1  0
 12 13  1  0
 13 14  1  0
  9 15  1  0
 15 16  1  0
 15 17  1  0
  2 18  1  0
 18 19  2  0
 19 20  1  0
 20 21  2  0
 21 22  1  0
 22 23  2  0
 20 24  1  0
 24 25  1  0
 24 26  2  0
  6  1  1  0
 14  9  1  0
 23 18  1  0
  3 27  1  0
  4 28  1  0
  7 29  1  0
  8 30  1  0
  8 31  1  0
 10 32  1  0
 10 33  1  0
 11 34  1  0
 11 35  1  0
 13 36  1  0
 13 37  1  0
 14 38  1  0
 14 39  1  0
 16 40  1  0
 16 41  1  0
 16 42  1  0
 17 43  1  0
 17 44  1  0
 17 45  1  0
 19 46  1  0
 21 47  1  0
 22 48  1  0
 25 49  1  0
M  END
>  <mol_id>  (27) 
MCULE-6110905834

>  <drugclip_rank>  (27) 
28

>  <conformer>  (27) 
31

>  <align_rmsd>  (27) 
0.434

$$$$
Z1636501544
     RDKit          3D

 53 55  0  0  0  0  0  0  0  0999 V2000
    1.3994  -12.1818   -1.8569 C   0  0  0  0  0  0  0  0  0  0  0  0
    1.9492  -10.9011   -1.5763 O   0  0  0  0  0  0  0  0  0  0  0  0
    1.1446   -9.8156   -1.7894 C   0  0  0  0  0  0  0  0  0  0  0  0
    1.7394   -8.5891   -1.4977 C   0  0  0  0  0  0  0  0  0  0  0  0
    1.0361   -7.3938   -1.6681 C   0  0  0  0  0  0  0  0  0  0  0  0
   -0.2816   -7.3995   -2.1320 C   0  0  0  0  0  0  0  0  0  0  0  0
   -0.8842   -8.6482   -2.4235 C   0  0  0  0  0  0  0  0  0  0  0  0
   -0.1723   -9.8443   -2.2495 C   0  0  0  0  0  0  0  0  0  0  0  0
   -2.1901   -8.5732   -2.8571 O   0  0  0  0  0  0  0  0  0  0  0  0
   -2.8101   -9.7792   -3.2826 C   0  0  0  0  0  0  0  0  0  0  0  0
   -1.0237   -6.2267   -2.3783 N   0  0  0  0  0  0  0  0  0  0  0  0
   -0.7315   -4.8659   -2.4150 C   0  0  0  0  0  0  0  0  0  0  0  0
    0.5039   -4.3651   -2.7725 C   0  0  0  0  0  0  0  0  0  0  0  0
    0.6743   -2.9917   -2.7828 C   0  0  0  0  0  0  0  0  0  0  0  0
   -0.3256   -2.1641   -2.4560 N   0  0  0  0  0  0  0  0  0  0  0  0
   -1.4947   -2.7363   -2.1475 C   0  0  0  0  0  0  0  0  0  0  0  0
   -1.7556   -4.0483   -2.1255 N   0  0  0  0  0  0  0  0  0  0  0  0
    1.9418   -2.4932   -3.1384 N   0  0  0  0  0  0  0  0  0  0  0  0
    2.1014   -1.0434   -3.0971 C   0  0  0  0  0  0  0  0  0  0  0  0
    2.4736   -0.5746   -1.7088 C   0  0  0  0  0  0  0  0  0  0  0  0
    3.7221   -0.8950   -1.1585 C   0  0  0  0  0  0  0  0  0  0  0  0
    4.0666   -0.4562    0.1195 C   0  0  0  0  0  0  0  0  0  0  0  0
    3.1651    0.3031    0.8649 C   0  0  0  0  0  0  0  0  0  0  0  0
    1.9066    0.6285    0.3412 C   0  0  0  0  0  0  0  0  0  0  0  0
    1.5719    0.1828   -0.9470 C   0  0  0  0  0  0  0  0  0  0  0  0
    0.9245    1.4339    1.1498 C   0  0  0  0  0  0  0  0  0  0  0  0
    0.9784    3.1694    0.6722 S   0  0  0  0  0  0  0  0  0  0  0  0
    0.2325    3.9444    1.6395 O   0  0  0  0  0  0  0  0  0  0  0  0
    0.7430    3.3217   -0.7458 O   0  0  0  0  0  0  0  0  0  0  0  0
    2.5782    3.6071    0.9174 N   0  0  0  0  0  0  0  0  0  0  0  0
    0.5393  -12.3915   -1.2125 H   0  0  0  0  0  0  0  0  0  0  0  0
    2.1676  -12.9304   -1.6404 H   0  0  0  0  0  0  0  0  0  0  0  0
    1.1336  -12.2741   -2.9152 H   0  0  0  0  0  0  0  0  0  0  0  0
    2.7607   -8.5610   -1.1247 H   0  0  0  0  0  0  0  0  0  0  0  0
    1.5306   -6.4697   -1.3877 H   0  0  0  0  0  0  0  0  0  0  0  0
   -0.6451  -10.7920   -2.4671 H   0  0  0  0  0  0  0  0  0  0  0  0
   -2.9294  -10.4758   -2.4464 H   0  0  0  0  0  0  0  0  0  0  0  0
   -3.8099   -9.5290   -3.6506 H   0  0  0  0  0  0  0  0  0  0  0  0
   -2.2579  -10.2400   -4.1082 H   0  0  0  0  0  0  0  0  0  0  0  0
   -2.0193   -6.3726   -2.2322 H   0  0  0  0  0  0  0  0  0  0  0  0
    1.3159   -5.0150   -3.0646 H   0  0  0  0  0  0  0  0  0  0  0  0
   -2.3121   -2.0712   -1.8923 H   0  0  0  0  0  0  0  0  0  0  0  0
    2.1904   -2.8671   -4.0488 H   0  0  0  0  0  0  0  0  0  0  0  0
    1.2291   -0.5088   -3.4940 H   0  0  0  0  0  0  0  0  0  0  0  0
    2.9285   -0.7716   -3.7662 H   0  0  0  0  0  0  0  0  0  0  0  0
    4.4264   -1.4991   -1.7259 H   0  0  0  0  0  0  0  0  0  0  0  0
    5.0367   -0.7129    0.5368 H   0  0  0  0  0  0  0  0  0  0  0  0
    3.4523    0.6357    1.8603 H   0  0  0  0  0  0  0  0  0  0  0  0
    0.5943    0.4198   -1.3667 H   0  0  0  0  0  0  0  0  0  0  0  0
   -0.0998    1.0823    0.9883 H   0  0  0  0  0  0  0  0  0  0  0  0
    1.1358    1.3773    2.2226 H   0  0  0  0  0  0  0  0  0  0  0  0
    2.6314    4.4189    1.5335 H   0  0  0  0  0  0  0  0  0  0  0  0
    3.0489    3.7322    0.0194 H   0  0  0  0  0  0  0  0  0  0  0  0
  1  2  1  0
  2  3  1  0
  3  4  2  0
  4  5  1  0
  5  6  2  0
  6  7  1  0
  7  8  2  0
  7  9  1  0
  9 10  1  0
  6 11  1  0
 11 12  1  0
 12 13  2  0
 13 14  1  0
 14 15  2  0
 15 16  1  0
 16 17  2  0
 14 18  1  0
 18 19  1  0
 19 20  1  0
 20 21  2  0
 21 22  1  0
 22 23  2  0
 23 24  1  0
 24 25  2  0
 24 26  1  0
 26 27  1  0
 27 28  2  0
 27 29  2  0
 27 30  1  0
  8  3  1  0
 17 12  1  0
 25 20  1  0
  1 31  1  0
  1 32  1  0
  1 33  1  0
  4 34  1  0
  5 35  1  0
  8 36  1  0
 10 37  1  0
 10 38  1  0
 10 39  1  0
 11 40  1  0
 13 41  1  0
 16 42  1  0
 18 43  1  0
 19 44  1  0
 19 45  1  0
 21 46  1  0
 22 47  1  0
 23 48  1  0
 25 49  1  0
 26 50  1  0
 26 51  1  0
 30 52  1  0
 30 53  1  0
M  END
>  <mol_id>  (28) 
Z1636501544

>  <drugclip_rank>  (28) 
29

>  <conformer>  (28) 
26

>  <align_rmsd>  (28) 
0.938

$$$$
Z5379192500
     RDKit          3D

 60 63  0  0  0  0  0  0  0  0999 V2000
   -1.3351    3.0073   -0.4212 N   0  0  0  0  0  0  0  0  0  0  0  0
   -1.4435    3.9202    0.5898 C   0  0  0  0  0  0  0  0  0  0  0  0
   -1.9467    3.2654    1.6927 C   0  0  0  0  0  0  0  0  0  0  0  0
   -2.1913    3.8894    2.9563 C   0  0  0  0  0  0  0  0  0  0  0  0
   -2.3938    4.3922    3.9840 N   0  0  0  0  0  0  0  0  0  0  0  0
   -2.1627    1.8956    1.3369 C   0  0  0  0  0  0  0  0  0  0  0  0
   -1.7723    1.7670   -0.0029 C   0  0  0  0  0  0  0  0  0  0  0  0
   -2.6517    0.7508    2.0247 C   0  0  0  0  0  0  0  0  0  0  0  0
   -3.1007    0.7801    3.4619 C   0  0  0  0  0  0  0  0  0  0  0  0
   -2.7336   -0.4637    1.3141 C   0  0  0  0  0  0  0  0  0  0  0  0
   -2.3369   -0.5604   -0.0170 C   0  0  0  0  0  0  0  0  0  0  0  0
   -1.8433    0.5509   -0.6972 C   0  0  0  0  0  0  0  0  0  0  0  0
   -1.3769    0.4458   -2.0340 N   0  0  0  0  0  0  0  0  0  0  0  0
   -0.0546   -0.5417   -2.3833 S   0  0  0  0  0  0  0  0  0  0  0  0
    0.4269   -0.1140   -3.6795 O   0  0  0  0  0  0  0  0  0  0  0  0
   -0.4136   -1.9203   -2.1303 O   0  0  0  0  0  0  0  0  0  0  0  0
    1.1538   -0.0469   -1.1777 C   0  0  0  0  0  0  0  0  0  0  0  0
    1.4673   -0.9006   -0.1134 C   0  0  0  0  0  0  0  0  0  0  0  0
    2.4258   -0.5141    0.8249 C   0  0  0  0  0  0  0  0  0  0  0  0
    3.0587    0.7237    0.7047 C   0  0  0  0  0  0  0  0  0  0  0  0
    2.7195    1.5784   -0.3494 C   0  0  0  0  0  0  0  0  0  0  0  0
    1.7917    1.1875   -1.3171 C   0  0  0  0  0  0  0  0  0  0  0  0
    3.3888    2.8841   -0.4989 C   0  0  0  0  0  0  0  0  0  0  0  0
    4.1274    3.0223   -1.4712 O   0  0  0  0  0  0  0  0  0  0  0  0
    3.1330    3.8925    0.4288 N   0  0  0  0  0  0  0  0  0  0  0  0
    3.8647    5.1439    0.2903 C   0  0  0  0  0  0  0  0  0  0  0  0
    5.2230    5.1050    0.9782 C   0  0  0  0  0  0  0  0  0  0  0  0
    5.2465    4.4567    2.3626 C   0  0  0  0  0  0  0  0  0  0  0  0
    3.9933    4.6702    3.2150 C   0  0  0  0  0  0  0  0  0  0  0  0
    2.8759    3.6383    2.9352 C   0  0  0  0  0  0  0  0  0  0  0  0
    2.2013    3.8104    1.5589 C   0  0  0  0  0  0  0  0  0  0  0  0
    1.8189    3.7327    4.0567 C   0  0  0  0  0  0  0  0  0  0  0  0
    0.8115    2.6825    3.9501 N   0  0  0  0  0  0  0  0  0  0  0  0
   -0.9857    3.2104   -1.3474 H   0  0  0  0  0  0  0  0  0  0  0  0
   -1.1480    4.9514    0.4422 H   0  0  0  0  0  0  0  0  0  0  0  0
   -2.2974    1.1584    4.1022 H   0  0  0  0  0  0  0  0  0  0  0  0
   -3.3677   -0.2185    3.8235 H   0  0  0  0  0  0  0  0  0  0  0  0
   -3.9809    1.4227    3.5652 H   0  0  0  0  0  0  0  0  0  0  0  0
   -3.1153   -1.3575    1.8067 H   0  0  0  0  0  0  0  0  0  0  0  0
   -2.4294   -1.5177   -0.5248 H   0  0  0  0  0  0  0  0  0  0  0  0
   -1.4525    1.2440   -2.6580 H   0  0  0  0  0  0  0  0  0  0  0  0
    0.9782   -1.8678   -0.0130 H   0  0  0  0  0  0  0  0  0  0  0  0
    2.6858   -1.1822    1.6430 H   0  0  0  0  0  0  0  0  0  0  0  0
    3.8258    1.0117    1.4191 H   0  0  0  0  0  0  0  0  0  0  0  0
    1.5819    1.8369   -2.1629 H   0  0  0  0  0  0  0  0  0  0  0  0
    3.2538    5.9617    0.6912 H   0  0  0  0  0  0  0  0  0  0  0  0
    4.0101    5.3683   -0.7732 H   0  0  0  0  0  0  0  0  0  0  0  0
    5.9409    4.5715    0.3418 H   0  0  0  0  0  0  0  0  0  0  0  0
    5.5972    6.1337    1.0542 H   0  0  0  0  0  0  0  0  0  0  0  0
    5.4387    3.3814    2.2563 H   0  0  0  0  0  0  0  0  0  0  0  0
    6.1134    4.8602    2.9020 H   0  0  0  0  0  0  0  0  0  0  0  0
    4.2997    4.5604    4.2637 H   0  0  0  0  0  0  0  0  0  0  0  0
    3.6183    5.6957    3.1116 H   0  0  0  0  0  0  0  0  0  0  0  0
    3.3299    2.6405    2.9833 H   0  0  0  0  0  0  0  0  0  0  0  0
    1.5986    4.7280    1.5476 H   0  0  0  0  0  0  0  0  0  0  0  0
    1.4972    2.9918    1.3851 H   0  0  0  0  0  0  0  0  0  0  0  0
    2.3002    3.6519    5.0387 H   0  0  0  0  0  0  0  0  0  0  0  0
    1.3206    4.7093    4.0191 H   0  0  0  0  0  0  0  0  0  0  0  0
    0.1155    2.8179    4.6869 H   0  0  0  0  0  0  0  0  0  0  0  0
    1.2392    1.7755    4.1388 H   0  0  0  0  0  0  0  0  0  0  0  0
  1  2  1  0
  2  3  2  0
  3  4  1  0
  4  5  3  0
  3  6  1  0
  6  7  2  0
  6  8  1  0
  8  9  1  0
  8 10  2  0
 10 11  1  0
 11 12  2  0
 12 13  1  0
 13 14  1  0
 14 15  2  0
 14 16  2  0
 14 17  1  0
 17 18  2  0
 18 19  1  0
 19 20  2  0
 20 21  1  0
 21 22  2  0
 21 23  1  0
 23 24  2  0
 23 25  1  0
 25 26  1  0
 26 27  1  0
 27 28  1  0
 28 29  1  0
 29 30  1  0
 30 31  1  0
 30 32  1  0
 32 33  1  0
  7  1  1  0
 12  7  1  0
 22 17  1  0
 31 25  1  0
  1 34  1  0
  2 35  1  0
  9 36  1  0
  9 37  1  0
  9 38  1  0
 10 39  1  0
 11 40  1  0
 13 41  1  0
 18 42  1  0
 19 43  1  0
 20 44  1  0
 22 45  1  0
 26 46  1  0
 26 47  1  0
 27 48  1  0
 27 49  1  0
 28 50  1  0
 28 51  1  0
 29 52  1  0
 29 53  1  0
 30 54  1  0
 31 55  1  0
 31 56  1  0
 32 57  1  0
 32 58  1  0
 33 59  1  0
 33 60  1  0
M  END
>  <mol_id>  (29) 
Z5379192500

>  <drugclip_rank>  (29) 
30

>  <conformer>  (29) 
12

>  <align_rmsd>  (29) 
0.48

$$$$
MCULE-2334703321
     RDKit          3D

 55 57  0  0  0  0  0  0  0  0999 V2000
    0.9545   -0.1505   -0.4591 C   0  0  0  0  0  0  0  0  0  0  0  0
    0.7818    0.6473    0.6568 C   0  0  0  0  0  0  0  0  0  0  0  0
    1.4587    1.7928    0.8993 N   0  0  0  0  0  0  0  0  0  0  0  0
    2.3572    2.1659   -0.0245 C   0  0  0  0  0  0  0  0  0  0  0  0
    2.6080    1.4784   -1.1414 N   0  0  0  0  0  0  0  0  0  0  0  0
    1.9080    0.3395   -1.3313 C   0  0  0  0  0  0  0  0  0  0  0  0
    3.0053    3.3510    0.2587 N   0  0  0  0  0  0  0  0  0  0  0  0
    4.0236    3.9331   -0.4603 C   0  0  0  0  0  0  0  0  0  0  0  0
    4.5505    3.4954   -1.4775 O   0  0  0  0  0  0  0  0  0  0  0  0
    4.4209    5.2985    0.1475 C   0  0  0  0  0  0  0  0  0  0  0  0
    5.6300    5.9335   -0.5508 C   0  0  0  0  0  0  0  0  0  0  0  0
    5.9296    7.3127    0.0298 C   0  0  0  0  0  0  0  0  0  0  0  0
    6.0251    7.2716    1.5519 C   0  0  0  0  0  0  0  0  0  0  0  0
    4.8246    6.5563    2.1796 C   0  0  0  0  0  0  0  0  0  0  0  0
    4.5645    5.2124    1.6324 N   0  0  0  0  0  0  0  0  0  0  0  0
    5.6070    4.2670    2.0542 C   0  0  0  0  0  0  0  0  0  0  0  0
    0.1971   -1.3843   -0.6970 C   0  0  0  0  0  0  0  0  0  0  0  0
    0.0200   -2.3376    0.3165 C   0  0  0  0  0  0  0  0  0  0  0  0
   -0.7097   -3.5119    0.0926 C   0  0  0  0  0  0  0  0  0  0  0  0
   -1.2809   -3.7654   -1.1555 C   0  0  0  0  0  0  0  0  0  0  0  0
   -2.0190   -4.8759   -1.4670 O   0  0  0  0  0  0  0  0  0  0  0  0
   -2.1574   -5.8748   -0.4647 C   0  0  0  0  0  0  0  0  0  0  0  0
   -1.1125   -2.8303   -2.1909 C   0  0  0  0  0  0  0  0  0  0  0  0
   -0.3821   -1.6511   -1.9487 C   0  0  0  0  0  0  0  0  0  0  0  0
   -1.7220   -3.0487   -3.5593 C   0  0  0  0  0  0  0  0  0  0  0  0
   -3.1905   -2.6367   -3.5966 C   0  0  0  0  0  0  0  0  0  0  0  0
   -3.7737   -2.8510   -4.9637 C   0  0  0  0  0  0  0  0  0  0  0  0
   -5.0945   -2.5816   -4.9966 O   0  0  0  0  0  0  0  0  0  0  0  0
   -3.1911   -3.2077   -5.9732 O   0  0  0  0  0  0  0  0  0  0  0  0
    0.0534    0.3919    1.4229 H   0  0  0  0  0  0  0  0  0  0  0  0
    2.1607   -0.1865   -2.2488 H   0  0  0  0  0  0  0  0  0  0  0  0
    2.7585    3.7702    1.1448 H   0  0  0  0  0  0  0  0  0  0  0  0
    3.5519    5.9427   -0.0545 H   0  0  0  0  0  0  0  0  0  0  0  0
    6.5131    5.2901   -0.4615 H   0  0  0  0  0  0  0  0  0  0  0  0
    5.4352    6.0327   -1.6255 H   0  0  0  0  0  0  0  0  0  0  0  0
    5.1317    8.0070   -0.2625 H   0  0  0  0  0  0  0  0  0  0  0  0
    6.8617    7.7035   -0.3935 H   0  0  0  0  0  0  0  0  0  0  0  0
    6.0838    8.2949    1.9400 H   0  0  0  0  0  0  0  0  0  0  0  0
    6.9567    6.7750    1.8468 H   0  0  0  0  0  0  0  0  0  0  0  0
    4.9568    6.5001    3.2672 H   0  0  0  0  0  0  0  0  0  0  0  0
    3.9265    7.1690    2.0282 H   0  0  0  0  0  0  0  0  0  0  0  0
    5.6619    4.2334    3.1484 H   0  0  0  0  0  0  0  0  0  0  0  0
    6.6031    4.5156    1.6765 H   0  0  0  0  0  0  0  0  0  0  0  0
    5.3717    3.2467    1.7353 H   0  0  0  0  0  0  0  0  0  0  0  0
    0.4613   -2.1858    1.3003 H   0  0  0  0  0  0  0  0  0  0  0  0
   -0.8104   -4.2079    0.9194 H   0  0  0  0  0  0  0  0  0  0  0  0
   -2.7083   -5.4905    0.4000 H   0  0  0  0  0  0  0  0  0  0  0  0
   -1.1828   -6.2763   -0.1679 H   0  0  0  0  0  0  0  0  0  0  0  0
   -2.7400   -6.6972   -0.8911 H   0  0  0  0  0  0  0  0  0  0  0  0
   -0.2796   -0.9250   -2.7555 H   0  0  0  0  0  0  0  0  0  0  0  0
   -1.1536   -2.4806   -4.3079 H   0  0  0  0  0  0  0  0  0  0  0  0
   -1.6051   -4.0993   -3.8538 H   0  0  0  0  0  0  0  0  0  0  0  0
   -3.7720   -3.2266   -2.8794 H   0  0  0  0  0  0  0  0  0  0  0  0
   -3.2934   -1.5759   -3.3422 H   0  0  0  0  0  0  0  0  0  0  0  0
   -5.3499   -2.7537   -5.9276 H   0  0  0  0  0  0  0  0  0  0  0  0
  1  2  2  0
  2  3  1  0
  3  4  2  0
  4  5  1  0
  5  6  2  0
  4  7  1  0
  7  8  1  0
  8  9  2  0
  8 10  1  0
 10 11  1  0
 11 12  1  0
 12 13  1  0
 13 14  1  0
 14 15  1  0
 15 16  1  0
  1 17  1  0
 17 18  2  0
 18 19  1  0
 19 20  2  0
 20 21  1  0
 21 22  1  0
 20 23  1  0
 23 24  2  0
 23 25  1  0
 25 26  1  0
 26 27  1  0
 27 28  1  0
 27 29  2  0
  6  1  1  0
 15 10  1  0
 24 17  1  0
  2 30  1  0
  6 31  1  0
  7 32  1  0
 10 33  1  0
 11 34  1  0
 11 35  1  0
 12 36  1  0
 12 37  1  0
 13 38  1  0
 13 39  1  0
 14 40  1  0
 14 41  1  0
 16 42  1  0
 16 43  1  0
 16 44  1  0
 18 45  1  0
 19 46  1  0
 22 47  1  0
 22 48  1  0
 22 49  1  0
 24 50  1  0
 25 51  1  0
 25 52  1  0
 26 53  1  0
 26 54  1  0
 28 55  1  0
M  END
>  <mol_id>  (30) 
MCULE-2334703321

>  <drugclip_rank>  (30) 
31

>  <conformer>  (30) 
3

>  <align_rmsd>  (30) 
0.601

$$$$
MCULE-4920035048
     RDKit          3D

 55 57  0  0  0  0  0  0  0  0999 V2000
    0.9644   -0.1450   -0.4542 C   0  0  0  0  0  0  0  0  0  0  0  0
    0.7831    0.6679    0.6502 C   0  0  0  0  0  0  0  0  0  0  0  0
    1.4811    1.7991    0.8987 N   0  0  0  0  0  0  0  0  0  0  0  0
    2.4090    2.1417   -0.0090 C   0  0  0  0  0  0  0  0  0  0  0  0
    2.6741    1.4374   -1.1106 N   0  0  0  0  0  0  0  0  0  0  0  0
    1.9485    0.3151   -1.3094 C   0  0  0  0  0  0  0  0  0  0  0  0
    3.0732    3.3185    0.2925 N   0  0  0  0  0  0  0  0  0  0  0  0
    4.0636    3.9174   -0.4498 C   0  0  0  0  0  0  0  0  0  0  0  0
    4.5587    3.4906   -1.4876 O   0  0  0  0  0  0  0  0  0  0  0  0
    4.5205    5.2351    0.1782 C   0  0  0  0  0  0  0  0  0  0  0  0
    5.3664    6.0484   -0.8135 C   0  0  0  0  0  0  0  0  0  0  0  0
    5.8762    7.2467   -0.1360 N   0  0  0  0  0  0  0  0  0  0  0  0
    6.4597    8.1956   -1.0784 C   0  0  0  0  0  0  0  0  0  0  0  0
    6.8128    6.9224    0.9533 C   0  0  0  0  0  0  0  0  0  0  0  0
    6.6967    5.4848    1.4725 C   0  0  0  0  0  0  0  0  0  0  0  0
    5.2505    4.9977    1.5147 C   0  0  0  0  0  0  0  0  0  0  0  0
    0.1888   -1.3674   -0.6906 C   0  0  0  0  0  0  0  0  0  0  0  0
   -0.0109   -2.3090    0.3279 C   0  0  0  0  0  0  0  0  0  0  0  0
   -0.7605   -3.4709    0.1087 C   0  0  0  0  0  0  0  0  0  0  0  0
   -1.3327   -3.7223   -1.1378 C   0  0  0  0  0  0  0  0  0  0  0  0
   -2.0847   -4.8251   -1.4447 O   0  0  0  0  0  0  0  0  0  0  0  0
   -2.3988   -5.7206   -0.3855 C   0  0  0  0  0  0  0  0  0  0  0  0
   -1.1373   -2.8020   -2.1809 C   0  0  0  0  0  0  0  0  0  0  0  0
   -0.3835   -1.6363   -1.9440 C   0  0  0  0  0  0  0  0  0  0  0  0
   -1.7399   -3.0265   -3.5544 C   0  0  0  0  0  0  0  0  0  0  0  0
   -3.2228   -2.6602   -3.6263 C   0  0  0  0  0  0  0  0  0  0  0  0
   -3.4400   -1.1754   -3.7031 C   0  0  0  0  0  0  0  0  0  0  0  0
   -4.7184   -0.8405   -3.4432 O   0  0  0  0  0  0  0  0  0  0  0  0
   -2.6288   -0.3168   -4.0041 O   0  0  0  0  0  0  0  0  0  0  0  0
    0.0310    0.4355    1.4009 H   0  0  0  0  0  0  0  0  0  0  0  0
    2.2085   -0.2259   -2.2167 H   0  0  0  0  0  0  0  0  0  0  0  0
    2.7428    3.7434    1.1440 H   0  0  0  0  0  0  0  0  0  0  0  0
    3.6062    5.8104    0.3869 H   0  0  0  0  0  0  0  0  0  0  0  0
    6.1880    5.4562   -1.2393 H   0  0  0  0  0  0  0  0  0  0  0  0
    4.7210    6.3367   -1.6541 H   0  0  0  0  0  0  0  0  0  0  0  0
    5.7280    8.4847   -1.8431 H   0  0  0  0  0  0  0  0  0  0  0  0
    7.3395    7.7821   -1.5852 H   0  0  0  0  0  0  0  0  0  0  0  0
    6.7562    9.1143   -0.5605 H   0  0  0  0  0  0  0  0  0  0  0  0
    6.6157    7.6184    1.7789 H   0  0  0  0  0  0  0  0  0  0  0  0
    7.8567    7.0762    0.6504 H   0  0  0  0  0  0  0  0  0  0  0  0
    7.1453    5.4146    2.4700 H   0  0  0  0  0  0  0  0  0  0  0  0
    7.2760    4.8158    0.8217 H   0  0  0  0  0  0  0  0  0  0  0  0
    5.2445    3.9378    1.8001 H   0  0  0  0  0  0  0  0  0  0  0  0
    4.7169    5.5352    2.3122 H   0  0  0  0  0  0  0  0  0  0  0  0
    0.4313   -2.1581    1.3106 H   0  0  0  0  0  0  0  0  0  0  0  0
   -0.8708   -4.1623    0.9358 H   0  0  0  0  0  0  0  0  0  0  0  0
   -3.0384   -6.5095   -0.7942 H   0  0  0  0  0  0  0  0  0  0  0  0
   -1.4952   -6.1969    0.0104 H   0  0  0  0  0  0  0  0  0  0  0  0
   -2.9610   -5.2141    0.4070 H   0  0  0  0  0  0  0  0  0  0  0  0
   -0.2619   -0.9178   -2.7561 H   0  0  0  0  0  0  0  0  0  0  0  0
   -1.1646   -2.4704   -4.3078 H   0  0  0  0  0  0  0  0  0  0  0  0
   -1.6133   -4.0834   -3.8228 H   0  0  0  0  0  0  0  0  0  0  0  0
   -3.6568   -3.0906   -4.5352 H   0  0  0  0  0  0  0  0  0  0  0  0
   -3.7671   -3.0542   -2.7612 H   0  0  0  0  0  0  0  0  0  0  0  0
   -4.7328    0.1326   -3.5585 H   0  0  0  0  0  0  0  0  0  0  0  0
  1  2  2  0
  2  3  1  0
  3  4  2  0
  4  5  1  0
  5  6  2  0
  4  7  1  0
  7  8  1  0
  8  9  2  0
  8 10  1  0
 10 11  1  0
 11 12  1  0
 12 13  1  0
 12 14  1  0
 14 15  1  0
 15 16  1  0
  1 17  1  0
 17 18  2  0
 18 19  1  0
 19 20  2  0
 20 21  1  0
 21 22  1  0
 20 23  1  0
 23 24  2  0
 23 25  1  0
 25 26  1  0
 26 27  1  0
 27 28  1  0
 27 29  2  0
  6  1  1  0
 16 10  1  0
 24 17  1  0
  2 30  1  0
  6 31  1  0
  7 32  1  0
 10 33  1  0
 11 34  1  0
 11 35  1  0
 13 36  1  0
 13 37  1  0
 13 38  1  0
 14 39  1  0
 14 40  1  0
 15 41  1  0
 15 42  1  0
 16 43  1  0
 16 44  1  0
 18 45  1  0
 19 46  1  0
 22 47  1  0
 22 48  1  0
 22 49  1  0
 24 50  1  0
 25 51  1  0
 25 52  1  0
 26 53  1  0
 26 54  1  0
 28 55  1  0
M  END
>  <mol_id>  (31) 
MCULE-4920035048

>  <drugclip_rank>  (31) 
32

>  <conformer>  (31) 
16

>  <align_rmsd>  (31) 
0.61

$$$$
MCULE-2687269303
     RDKit          3D

 56 59  0  0  0  0  0  0  0  0999 V2000
    6.5118    3.8708   -0.7384 C   0  0  0  0  0  0  0  0  0  0  0  0
    6.0858    4.0815    0.5597 C   0  0  0  0  0  0  0  0  0  0  0  0
    4.7934    4.0644    0.9580 N   0  0  0  0  0  0  0  0  0  0  0  0
    3.8759    3.8209    0.0097 C   0  0  0  0  0  0  0  0  0  0  0  0
    4.1692    3.5976   -1.2738 N   0  0  0  0  0  0  0  0  0  0  0  0
    5.4740    3.6312   -1.6185 C   0  0  0  0  0  0  0  0  0  0  0  0
    2.5737    3.8052    0.4679 N   0  0  0  0  0  0  0  0  0  0  0  0
    1.4324    3.6454   -0.2801 C   0  0  0  0  0  0  0  0  0  0  0  0
    1.3655    3.4740   -1.4935 O   0  0  0  0  0  0  0  0  0  0  0  0
    0.1772    3.6361    0.6113 C   0  0  0  0  0  0  0  0  0  0  0  0
   -1.0421    4.1493   -0.1829 C   0  0  0  0  0  0  0  0  0  0  0  0
   -2.2908    4.1597    0.6030 N   0  0  0  0  0  0  0  0  0  0  0  0
   -3.2810    3.1508    0.2105 C   0  0  0  0  0  0  0  0  0  0  0  0
   -2.9007    1.6992    0.4216 C   0  0  0  0  0  0  0  0  0  0  0  0
   -3.2552    1.0334    1.6053 C   0  0  0  0  0  0  0  0  0  0  0  0
   -2.8993   -0.3018    1.8075 C   0  0  0  0  0  0  0  0  0  0  0  0
   -2.1909   -0.9911    0.8261 C   0  0  0  0  0  0  0  0  0  0  0  0
   -1.8433   -0.3486   -0.3597 C   0  0  0  0  0  0  0  0  0  0  0  0
   -2.1996    0.9863   -0.5630 C   0  0  0  0  0  0  0  0  0  0  0  0
   -2.0334    4.2345    2.0479 C   0  0  0  0  0  0  0  0  0  0  0  0
   -0.7524    5.0325    2.3343 C   0  0  0  0  0  0  0  0  0  0  0  0
    0.4236    4.3872    1.8211 O   0  0  0  0  0  0  0  0  0  0  0  0
    7.9206    3.8980   -1.1414 C   0  0  0  0  0  0  0  0  0  0  0  0
    8.7593    4.9625   -0.7732 C   0  0  0  0  0  0  0  0  0  0  0  0
   10.1022    4.9863   -1.1550 C   0  0  0  0  0  0  0  0  0  0  0  0
   10.6327    3.9462   -1.9147 C   0  0  0  0  0  0  0  0  0  0  0  0
    9.8230    2.8740   -2.3052 C   0  0  0  0  0  0  0  0  0  0  0  0
    8.4748    2.8575   -1.9095 C   0  0  0  0  0  0  0  0  0  0  0  0
   10.3976    1.7340   -3.1128 C   0  0  0  0  0  0  0  0  0  0  0  0
   10.9956    0.6320   -2.2733 C   0  0  0  0  0  0  0  0  0  0  0  0
   11.1395    0.5941   -1.0633 O   0  0  0  0  0  0  0  0  0  0  0  0
   11.4094   -0.4054   -3.0334 O   0  0  0  0  0  0  0  0  0  0  0  0
    6.7972    4.2682    1.3607 H   0  0  0  0  0  0  0  0  0  0  0  0
    5.6572    3.4584   -2.6764 H   0  0  0  0  0  0  0  0  0  0  0  0
    2.4669    4.0117    1.4522 H   0  0  0  0  0  0  0  0  0  0  0  0
    0.0217    2.5918    0.9093 H   0  0  0  0  0  0  0  0  0  0  0  0
   -0.8468    5.1926   -0.4675 H   0  0  0  0  0  0  0  0  0  0  0  0
   -1.1633    3.6180   -1.1330 H   0  0  0  0  0  0  0  0  0  0  0  0
   -4.2206    3.3515    0.7429 H   0  0  0  0  0  0  0  0  0  0  0  0
   -3.5395    3.2957   -0.8473 H   0  0  0  0  0  0  0  0  0  0  0  0
   -3.8119    1.5549    2.3808 H   0  0  0  0  0  0  0  0  0  0  0  0
   -3.1763   -0.8041    2.7307 H   0  0  0  0  0  0  0  0  0  0  0  0
   -1.9133   -2.0303    0.9827 H   0  0  0  0  0  0  0  0  0  0  0  0
   -1.2958   -0.8862   -1.1301 H   0  0  0  0  0  0  0  0  0  0  0  0
   -1.9266    1.4640   -1.5016 H   0  0  0  0  0  0  0  0  0  0  0  0
   -2.8849    4.7119    2.5445 H   0  0  0  0  0  0  0  0  0  0  0  0
   -1.8992    3.2386    2.4823 H   0  0  0  0  0  0  0  0  0  0  0  0
   -0.8087    6.0404    1.9068 H   0  0  0  0  0  0  0  0  0  0  0  0
   -0.6147    5.1460    3.4145 H   0  0  0  0  0  0  0  0  0  0  0  0
    8.3711    5.7961   -0.1903 H   0  0  0  0  0  0  0  0  0  0  0  0
   10.7355    5.8185   -0.8576 H   0  0  0  0  0  0  0  0  0  0  0  0
   11.6836    3.9767   -2.1948 H   0  0  0  0  0  0  0  0  0  0  0  0
    7.8524    2.0086   -2.1918 H   0  0  0  0  0  0  0  0  0  0  0  0
    9.6077    1.3025   -3.7390 H   0  0  0  0  0  0  0  0  0  0  0  0
   11.1753    2.1187   -3.7830 H   0  0  0  0  0  0  0  0  0  0  0  0
   11.7716   -1.0426   -2.3815 H   0  0  0  0  0  0  0  0  0  0  0  0
  1  2  2  0
  2  3  1  0
  3  4  2  0
  4  5  1  0
  5  6  2  0
  4  7  1  0
  7  8  1  0
  8  9  2  0
  8 10  1  0
 10 11  1  0
 11 12  1  0
 12 13  1  0
 13 14  1  0
 14 15  2  0
 15 16  1  0
 16 17  2  0
 17 18  1  0
 18 19  2  0
 12 20  1  0
 20 21  1  0
 21 22  1  0
  1 23  1  0
 23 24  2  0
 24 25  1  0
 25 26  2  0
 26 27  1  0
 27 28  2  0
 27 29  1  0
 29 30  1  0
 30 31  2  0
 30 32  1  0
  6  1  1  0
 22 10  1  0
 28 23  1  0
 19 14  1  0
  2 33  1  0
  6 34  1  0
  7 35  1  0
 10 36  1  0
 11 37  1  0
 11 38  1  0
 13 39  1  0
 13 40  1  0
 15 41  1  0
 16 42  1  0
 17 43  1  0
 18 44  1  0
 19 45  1  0
 20 46  1  0
 20 47  1  0
 21 48  1  0
 21 49  1  0
 24 50  1  0
 25 51  1  0
 26 52  1  0
 28 53  1  0
 29 54  1  0
 29 55  1  0
 32 56  1  0
M  END
>  <mol_id>  (32) 
MCULE-2687269303

>  <drugclip_rank>  (32) 
33

>  <conformer>  (32) 
27

>  <align_rmsd>  (32) 
1.076

$$$$
Z9061388696
     RDKit          3D

 65 68  0  0  0  0  0  0  0  0999 V2000
    1.4465  -11.9993    3.1888 C   0  0  0  0  0  0  0  0  0  0  0  0
    2.3854  -11.7014    2.0091 C   0  0  0  0  0  0  0  0  0  0  0  0
    2.1641  -12.7655    0.9287 C   0  0  0  0  0  0  0  0  0  0  0  0
    3.8290  -11.6970    2.5244 C   0  0  0  0  0  0  0  0  0  0  0  0
    1.9870  -10.3854    1.5476 O   0  0  0  0  0  0  0  0  0  0  0  0
    2.6229   -9.7873    0.5075 C   0  0  0  0  0  0  0  0  0  0  0  0
    3.5287  -10.2964   -0.1391 O   0  0  0  0  0  0  0  0  0  0  0  0
    2.1194   -8.5232    0.2512 N   0  0  0  0  0  0  0  0  0  0  0  0
    2.6432   -7.7582   -0.8678 C   0  0  0  0  0  0  0  0  0  0  0  0
    1.5655   -6.8583   -1.4585 C   0  0  0  0  0  0  0  0  0  0  0  0
    1.0930   -7.8955    1.0709 C   0  0  0  0  0  0  0  0  0  0  0  0
    1.1781   -6.3737    1.0073 C   0  0  0  0  0  0  0  0  0  0  0  0
    1.0588   -5.7896   -0.4330 C   0  0  0  0  0  0  0  0  0  0  0  0
   -0.3719   -5.4381   -0.7871 C   0  0  0  0  0  0  0  0  0  0  0  0
   -0.8002   -4.3502   -1.5217 C   0  0  0  0  0  0  0  0  0  0  0  0
   -2.1524   -4.3718   -1.7082 N   0  0  0  0  0  0  0  0  0  0  0  0
   -2.5590   -5.4505   -1.0762 C   0  0  0  0  0  0  0  0  0  0  0  0
   -1.5181   -6.1292   -0.4979 N   0  0  0  0  0  0  0  0  0  0  0  0
    0.1018   -3.2836   -2.0148 C   0  0  0  0  0  0  0  0  0  0  0  0
    1.5601   -3.7822   -1.9237 C   0  0  0  0  0  0  0  0  0  0  0  0
    1.8281   -4.4788   -0.6284 N   0  0  0  0  0  0  0  0  0  0  0  0
    2.0606   -3.6286    0.4753 C   0  0  0  0  0  0  0  0  0  0  0  0
    1.5561   -3.7947    1.5860 O   0  0  0  0  0  0  0  0  0  0  0  0
    3.0511   -2.4827    0.2684 C   0  0  0  0  0  0  0  0  0  0  0  0
    2.4144   -1.1239    0.0738 C   0  0  0  0  0  0  0  0  0  0  0  0
    1.4435   -0.6459    0.9671 C   0  0  0  0  0  0  0  0  0  0  0  0
    0.8790    0.6193    0.7960 C   0  0  0  0  0  0  0  0  0  0  0  0
    1.2879    1.4173   -0.2732 C   0  0  0  0  0  0  0  0  0  0  0  0
    2.2680    0.9701   -1.1596 C   0  0  0  0  0  0  0  0  0  0  0  0
    2.8316   -0.2955   -0.9808 C   0  0  0  0  0  0  0  0  0  0  0  0
    0.5759    3.0221   -0.4718 S   0  0  0  0  0  0  0  0  0  0  0  0
    0.5352    3.6774    0.8139 O   0  0  0  0  0  0  0  0  0  0  0  0
    1.1292    3.6518   -1.6494 O   0  0  0  0  0  0  0  0  0  0  0  0
   -1.0155    2.6583   -0.8668 N   0  0  0  0  0  0  0  0  0  0  0  0
    1.6599  -12.9720    3.6429 H   0  0  0  0  0  0  0  0  0  0  0  0
    1.5362  -11.2289    3.9624 H   0  0  0  0  0  0  0  0  0  0  0  0
    0.3994  -11.9908    2.8663 H   0  0  0  0  0  0  0  0  0  0  0  0
    2.8511  -12.6461    0.0861 H   0  0  0  0  0  0  0  0  0  0  0  0
    1.1504  -12.6986    0.5191 H   0  0  0  0  0  0  0  0  0  0  0  0
    2.3116  -13.7739    1.3290 H   0  0  0  0  0  0  0  0  0  0  0  0
    4.5524  -11.5549    1.7159 H   0  0  0  0  0  0  0  0  0  0  0  0
    3.9861  -10.8771    3.2339 H   0  0  0  0  0  0  0  0  0  0  0  0
    4.0773  -12.6396    3.0230 H   0  0  0  0  0  0  0  0  0  0  0  0
    3.4933   -7.1688   -0.5057 H   0  0  0  0  0  0  0  0  0  0  0  0
    3.0218   -8.4385   -1.6385 H   0  0  0  0  0  0  0  0  0  0  0  0
    1.9614   -6.4140   -2.3747 H   0  0  0  0  0  0  0  0  0  0  0  0
    0.7311   -7.4999   -1.7775 H   0  0  0  0  0  0  0  0  0  0  0  0
    0.1237   -8.2581    0.7137 H   0  0  0  0  0  0  0  0  0  0  0  0
    1.1986   -8.2205    2.1118 H   0  0  0  0  0  0  0  0  0  0  0  0
    2.1586   -6.1137    1.4290 H   0  0  0  0  0  0  0  0  0  0  0  0
    0.4154   -5.9520    1.6733 H   0  0  0  0  0  0  0  0  0  0  0  0
   -3.5827   -5.7911   -1.0006 H   0  0  0  0  0  0  0  0  0  0  0  0
   -1.6052   -6.9813    0.0376 H   0  0  0  0  0  0  0  0  0  0  0  0
   -0.1395   -3.0058   -3.0456 H   0  0  0  0  0  0  0  0  0  0  0  0
   -0.0302   -2.3968   -1.3863 H   0  0  0  0  0  0  0  0  0  0  0  0
    1.7677   -4.4708   -2.7463 H   0  0  0  0  0  0  0  0  0  0  0  0
    2.2376   -2.9407   -2.0746 H   0  0  0  0  0  0  0  0  0  0  0  0
    3.7323   -2.7279   -0.5548 H   0  0  0  0  0  0  0  0  0  0  0  0
    3.6909   -2.4388    1.1603 H   0  0  0  0  0  0  0  0  0  0  0  0
    1.1205   -1.2548    1.8108 H   0  0  0  0  0  0  0  0  0  0  0  0
    0.1319    0.9759    1.5013 H   0  0  0  0  0  0  0  0  0  0  0  0
    2.6078    1.5982   -1.9790 H   0  0  0  0  0  0  0  0  0  0  0  0
    3.6062   -0.6264   -1.6699 H   0  0  0  0  0  0  0  0  0  0  0  0
   -1.6439    3.0221   -0.1494 H   0  0  0  0  0  0  0  0  0  0  0  0
   -1.2252    2.9910   -1.8083 H   0  0  0  0  0  0  0  0  0  0  0  0
  1  2  1  0
  2  3  1  0
  2  4  1  0
  2  5  1  0
  5  6  1  0
  6  7  2  0
  6  8  1  0
  8  9  1  0
  9 10  1  0
  8 11  1  0
 11 12  1  0
 12 13  1  0
 13 14  1  0
 14 15  2  0
 15 16  1  0
 16 17  2  0
 17 18  1  0
 15 19  1  0
 19 20  1  0
 20 21  1  0
 21 22  1  0
 22 23  2  0
 22 24  1  0
 24 25  1  0
 25 26  2  0
 26 27  1  0
 27 28  2  0
 28 29  1  0
 29 30  2  0
 28 31  1  0
 31 32  2  0
 31 33  2  0
 31 34  1  0
 13 10  1  0
 21 13  1  0
 18 14  1  0
 30 25  1  0
  1 35  1  0
  1 36  1  0
  1 37  1  0
  3 38  1  0
  3 39  1  0
  3 40  1  0
  4 41  1  0
  4 42  1  0
  4 43  1  0
  9 44  1  0
  9 45  1  0
 10 46  1  0
 10 47  1  0
 11 48  1  0
 11 49  1  0
 12 50  1  0
 12 51  1  0
 17 52  1  0
 18 53  1  0
 19 54  1  0
 19 55  1  0
 20 56  1  0
 20 57  1  0
 24 58  1  0
 24 59  1  0
 26 60  1  0
 27 61  1  0
 29 62  1  0
 30 63  1  0
 34 64  1  0
 34 65  1  0
M  END
>  <mol_id>  (33) 
Z9061388696

>  <drugclip_rank>  (33) 
34

>  <conformer>  (33) 
36

>  <align_rmsd>  (33) 
1.124

$$$$
Z7151946903
     RDKit          3D

 62 65  0  0  0  0  0  0  0  0999 V2000
   -2.5970  -11.0576   -3.8884 C   0  0  0  0  0  0  0  0  0  0  0  0
   -3.5683   -9.8868   -3.9547 C   0  0  0  0  0  0  0  0  0  0  0  0
   -3.4932   -8.9506   -2.7288 C   0  0  0  0  0  0  0  0  0  0  0  0
   -4.5865   -7.8767   -2.8251 C   0  0  0  0  0  0  0  0  0  0  0  0
   -5.0574   -7.5249   -1.5222 O   0  0  0  0  0  0  0  0  0  0  0  0
   -4.2265   -6.5949   -0.8290 C   0  0  0  0  0  0  0  0  0  0  0  0
   -2.8265   -7.1383   -0.5286 C   0  0  0  0  0  0  0  0  0  0  0  0
   -2.0104   -7.1012   -1.7777 N   0  0  0  0  0  0  0  0  0  0  0  0
   -2.0823   -8.3481   -2.5904 C   0  0  0  0  0  0  0  0  0  0  0  0
   -0.4058   -6.5272   -1.5877 S   0  0  0  0  0  0  0  0  0  0  0  0
    0.2360   -6.5097   -2.8842 O   0  0  0  0  0  0  0  0  0  0  0  0
    0.1695   -7.2714   -0.4855 O   0  0  0  0  0  0  0  0  0  0  0  0
   -0.6335   -4.8311   -1.0765 C   0  0  0  0  0  0  0  0  0  0  0  0
   -1.3134   -3.8856   -1.8856 C   0  0  0  0  0  0  0  0  0  0  0  0
   -1.4711   -2.5674   -1.3749 C   0  0  0  0  0  0  0  0  0  0  0  0
   -1.8560   -4.1699   -3.1626 C   0  0  0  0  0  0  0  0  0  0  0  0
   -2.5457   -3.1967   -3.8630 C   0  0  0  0  0  0  0  0  0  0  0  0
   -2.7502   -1.9603   -3.3933 N   0  0  0  0  0  0  0  0  0  0  0  0
   -2.2147   -1.6840   -2.1801 C   0  0  0  0  0  0  0  0  0  0  0  0
   -0.1353   -4.4810    0.1807 C   0  0  0  0  0  0  0  0  0  0  0  0
   -0.2882   -3.1829    0.6572 C   0  0  0  0  0  0  0  0  0  0  0  0
   -0.9020   -2.1876   -0.1126 C   0  0  0  0  0  0  0  0  0  0  0  0
   -1.0784   -0.8823    0.3820 N   0  0  0  0  0  0  0  0  0  0  0  0
   -0.2978   -0.3389    1.4911 C   0  0  0  0  0  0  0  0  0  0  0  0
    1.0612    0.1310    1.0219 C   0  0  0  0  0  0  0  0  0  0  0  0
    2.2153   -0.6263    1.2781 C   0  0  0  0  0  0  0  0  0  0  0  0
    3.4654   -0.2099    0.8111 C   0  0  0  0  0  0  0  0  0  0  0  0
    3.5826    0.9728    0.0836 C   0  0  0  0  0  0  0  0  0  0  0  0
    2.4417    1.7393   -0.1624 C   0  0  0  0  0  0  0  0  0  0  0  0
    1.1849    1.3239    0.2921 C   0  0  0  0  0  0  0  0  0  0  0  0
    2.5764    3.2411   -1.0961 S   0  0  0  0  0  0  0  0  0  0  0  0
    3.7901    3.1894   -1.8776 O   0  0  0  0  0  0  0  0  0  0  0  0
    1.2875    3.5373   -1.6741 O   0  0  0  0  0  0  0  0  0  0  0  0
    2.8666    4.3664    0.1232 N   0  0  0  0  0  0  0  0  0  0  0  0
   -2.7368  -11.6324   -2.9670 H   0  0  0  0  0  0  0  0  0  0  0  0
   -1.5568  -10.7214   -3.9336 H   0  0  0  0  0  0  0  0  0  0  0  0
   -2.7636  -11.7309   -4.7355 H   0  0  0  0  0  0  0  0  0  0  0  0
   -3.3866   -9.3181   -4.8748 H   0  0  0  0  0  0  0  0  0  0  0  0
   -4.5835  -10.2962   -4.0326 H   0  0  0  0  0  0  0  0  0  0  0  0
   -3.6899   -9.5577   -1.8345 H   0  0  0  0  0  0  0  0  0  0  0  0
   -5.4614   -8.2800   -3.3467 H   0  0  0  0  0  0  0  0  0  0  0  0
   -4.2683   -6.9883   -3.3841 H   0  0  0  0  0  0  0  0  0  0  0  0
   -4.7305   -6.3827    0.1202 H   0  0  0  0  0  0  0  0  0  0  0  0
   -4.1850   -5.6546   -1.3913 H   0  0  0  0  0  0  0  0  0  0  0  0
   -2.3805   -6.5014    0.2416 H   0  0  0  0  0  0  0  0  0  0  0  0
   -2.8665   -8.1563   -0.1258 H   0  0  0  0  0  0  0  0  0  0  0  0
   -1.4115   -9.0997   -2.1568 H   0  0  0  0  0  0  0  0  0  0  0  0
   -1.7096   -8.1025   -3.5925 H   0  0  0  0  0  0  0  0  0  0  0  0
   -1.7552   -5.1418   -3.6344 H   0  0  0  0  0  0  0  0  0  0  0  0
   -2.9647   -3.4011   -4.8439 H   0  0  0  0  0  0  0  0  0  0  0  0
   -2.4303   -0.6694   -1.8570 H   0  0  0  0  0  0  0  0  0  0  0  0
    0.3710   -5.2129    0.8076 H   0  0  0  0  0  0  0  0  0  0  0  0
    0.0950   -2.9772    1.6506 H   0  0  0  0  0  0  0  0  0  0  0  0
   -1.1248   -0.2024   -0.3718 H   0  0  0  0  0  0  0  0  0  0  0  0
   -0.2219   -1.0254    2.3407 H   0  0  0  0  0  0  0  0  0  0  0  0
   -0.8376    0.5314    1.8864 H   0  0  0  0  0  0  0  0  0  0  0  0
    2.1491   -1.5595    1.8338 H   0  0  0  0  0  0  0  0  0  0  0  0
    4.3466   -0.8185    1.0045 H   0  0  0  0  0  0  0  0  0  0  0  0
    4.5559    1.2811   -0.2924 H   0  0  0  0  0  0  0  0  0  0  0  0
    0.3019    1.9237    0.0722 H   0  0  0  0  0  0  0  0  0  0  0  0
    3.7973    4.7657   -0.0137 H   0  0  0  0  0  0  0  0  0  0  0  0
    2.7496    3.9852    1.0611 H   0  0  0  0  0  0  0  0  0  0  0  0
  1  2  1  0
  2  3  1  0
  3  4  1  0
  4  5  1  0
  5  6  1  0
  6  7  1  0
  7  8  1  0
  8  9  1  0
  8 10  1  0
 10 11  2  0
 10 12  2  0
 10 13  1  0
 13 14  1  0
 14 15  1  0
 14 16  2  0
 16 17  1  0
 17 18  2  0
 18 19  1  0
 13 20  2  0
 20 21  1  0
 21 22  2  0
 22 23  1  0
 23 24  1  0
 24 25  1  0
 25 26  2  0
 26 27  1  0
 27 28  2  0
 28 29  1  0
 29 30  2  0
 29 31  1  0
 31 32  2  0
 31 33  2  0
 31 34  1  0
  9  3  1  0
 22 15  1  0
 19 15  2  0
 30 25  1  0
  1 35  1  0
  1 36  1  0
  1 37  1  0
  2 38  1  0
  2 39  1  0
  3 40  1  0
  4 41  1  0
  4 42  1  0
  6 43  1  0
  6 44  1  0
  7 45  1  0
  7 46  1  0
  9 47  1  0
  9 48  1  0
 16 49  1  0
 17 50  1  0
 19 51  1  0
 20 52  1  0
 21 53  1  0
 23 54  1  0
 24 55  1  0
 24 56  1  0
 26 57  1  0
 27 58  1  0
 28 59  1  0
 30 60  1  0
 34 61  1  0
 34 62  1  0
M  END
>  <mol_id>  (34) 
Z7151946903

>  <drugclip_rank>  (34) 
35

>  <conformer>  (34) 
14

>  <align_rmsd>  (34) 
0.937

$$$$
Z1279774550
     RDKit          3D

 48 51  0  0  0  0  0  0  0  0999 V2000
    2.5729    3.7289    0.7805 N   0  0  0  0  0  0  0  0  0  0  0  0
    1.3831    3.0487   -0.1995 S   0  0  0  0  0  0  0  0  0  0  0  0
    1.6322    3.5649   -1.5240 O   0  0  0  0  0  0  0  0  0  0  0  0
    0.1393    3.2406    0.5080 O   0  0  0  0  0  0  0  0  0  0  0  0
    1.6820    1.3082   -0.2565 C   0  0  0  0  0  0  0  0  0  0  0  0
    2.6385    0.5071    0.3347 C   0  0  0  0  0  0  0  0  0  0  0  0
    2.4842   -0.8657   -0.0137 C   0  0  0  0  0  0  0  0  0  0  0  0
    1.4069   -1.0736   -0.8524 C   0  0  0  0  0  0  0  0  0  0  0  0
    0.6057    0.3968   -1.2197 S   0  0  0  0  0  0  0  0  0  0  0  0
    0.9109   -2.3742   -1.4273 C   0  0  0  0  0  0  0  0  0  0  0  0
    0.0398   -3.1467   -0.4303 C   0  0  0  0  0  0  0  0  0  0  0  0
   -1.1980   -2.4593   -0.1227 N   0  0  0  0  0  0  0  0  0  0  0  0
   -2.2957   -2.5407   -0.9491 C   0  0  0  0  0  0  0  0  0  0  0  0
   -2.3329   -3.3139   -1.9037 O   0  0  0  0  0  0  0  0  0  0  0  0
   -3.4016   -1.6261   -0.6462 C   0  0  0  0  0  0  0  0  0  0  0  0
   -4.5040   -1.4924   -1.4813 C   0  0  0  0  0  0  0  0  0  0  0  0
   -5.3570   -0.5607   -0.9606 N   0  0  0  0  0  0  0  0  0  0  0  0
   -4.8396   -0.0816    0.2106 C   0  0  0  0  0  0  0  0  0  0  0  0
   -3.6350   -0.7185    0.4428 C   0  0  0  0  0  0  0  0  0  0  0  0
   -2.8572   -0.4280    1.6301 C   0  0  0  0  0  0  0  0  0  0  0  0
   -2.1575    0.7806    1.7314 C   0  0  0  0  0  0  0  0  0  0  0  0
   -1.3731    1.0451    2.8560 C   0  0  0  0  0  0  0  0  0  0  0  0
   -2.7825   -1.3653    2.6663 C   0  0  0  0  0  0  0  0  0  0  0  0
   -2.0107   -1.0906    3.7945 C   0  0  0  0  0  0  0  0  0  0  0  0
   -1.2874    0.1043    3.8794 C   0  0  0  0  0  0  0  0  0  0  0  0
   -1.9984   -2.0456    4.7792 O   0  0  0  0  0  0  0  0  0  0  0  0
   -1.4957   -1.5121    6.0096 C   0  0  0  0  0  0  0  0  0  0  0  0
   -0.2210   -0.7209    5.7655 C   0  0  0  0  0  0  0  0  0  0  0  0
   -0.4808    0.4220    4.9421 O   0  0  0  0  0  0  0  0  0  0  0  0
    3.1271    4.3718    0.2113 H   0  0  0  0  0  0  0  0  0  0  0  0
    2.1167    4.2050    1.5607 H   0  0  0  0  0  0  0  0  0  0  0  0
    3.4143    0.8962    0.9834 H   0  0  0  0  0  0  0  0  0  0  0  0
    3.1305   -1.6618    0.3383 H   0  0  0  0  0  0  0  0  0  0  0  0
    0.3591   -2.1978   -2.3589 H   0  0  0  0  0  0  0  0  0  0  0  0
    1.7787   -2.9920   -1.6911 H   0  0  0  0  0  0  0  0  0  0  0  0
    0.5672   -3.2942    0.5186 H   0  0  0  0  0  0  0  0  0  0  0  0
   -0.1965   -4.1346   -0.8410 H   0  0  0  0  0  0  0  0  0  0  0  0
   -1.1395   -1.6761    0.5109 H   0  0  0  0  0  0  0  0  0  0  0  0
   -4.7342   -1.9919   -2.4143 H   0  0  0  0  0  0  0  0  0  0  0  0
   -6.2338   -0.2727   -1.3765 H   0  0  0  0  0  0  0  0  0  0  0  0
   -5.3730    0.6662    0.7834 H   0  0  0  0  0  0  0  0  0  0  0  0
   -2.2066    1.5182    0.9320 H   0  0  0  0  0  0  0  0  0  0  0  0
   -0.8249    1.9812    2.9233 H   0  0  0  0  0  0  0  0  0  0  0  0
   -3.3288   -2.3033    2.6028 H   0  0  0  0  0  0  0  0  0  0  0  0
   -2.2754   -0.8897    6.4660 H   0  0  0  0  0  0  0  0  0  0  0  0
   -1.2961   -2.3537    6.6796 H   0  0  0  0  0  0  0  0  0  0  0  0
    0.1871   -0.3597    6.7150 H   0  0  0  0  0  0  0  0  0  0  0  0
    0.5446   -1.3349    5.2753 H   0  0  0  0  0  0  0  0  0  0  0  0
  1  2  1  0
  2  3  2  0
  2  4  2  0
  2  5  1  0
  5  6  2  0
  6  7  1  0
  7  8  2  0
  8  9  1  0
  8 10  1  0
 10 11  1  0
 11 12  1  0
 12 13  1  0
 13 14  2  0
 13 15  1  0
 15 16  2  0
 16 17  1  0
 17 18  1  0
 18 19  2  0
 19 20  1  0
 20 21  2  0
 21 22  1  0
 20 23  1  0
 23 24  2  0
 24 25  1  0
 24 26  1  0
 26 27  1  0
 27 28  1  0
 28 29  1  0
  9  5  1  0
 19 15  1  0
 25 22  2  0
 29 25  1  0
  1 30  1  0
  1 31  1  0
  6 32  1  0
  7 33  1  0
 10 34  1  0
 10 35  1  0
 11 36  1  0
 11 37  1  0
 12 38  1  0
 16 39  1  0
 17 40  1  0
 18 41  1  0
 21 42  1  0
 22 43  1  0
 23 44  1  0
 27 45  1  0
 27 46  1  0
 28 47  1  0
 28 48  1  0
M  END
>  <mol_id>  (35) 
Z1279774550

>  <drugclip_rank>  (35) 
36

>  <conformer>  (35) 
0

>  <align_rmsd>  (35) 
1.252

$$$$
Z3015156460
     RDKit          3D

 57 60  0  0  0  0  0  0  0  0999 V2000
    3.1842   -1.3744    0.4435 C   0  0  0  0  0  0  0  0  0  0  0  0
    1.7905   -0.7512    0.1588 C   0  0  0  0  0  0  0  0  0  0  0  0
    1.2884   -0.1948    1.5104 C   0  0  0  0  0  0  0  0  0  0  0  0
    2.0303    0.4156   -0.8266 C   0  0  0  0  0  0  0  0  0  0  0  0
    0.7743   -1.7527   -0.4418 C   0  0  0  0  0  0  0  0  0  0  0  0
    1.1576   -3.0787   -0.7387 C   0  0  0  0  0  0  0  0  0  0  0  0
    0.2701   -3.9994   -1.3103 C   0  0  0  0  0  0  0  0  0  0  0  0
   -1.0302   -3.6205   -1.6141 C   0  0  0  0  0  0  0  0  0  0  0  0
   -1.4478   -2.3249   -1.3343 C   0  0  0  0  0  0  0  0  0  0  0  0
   -0.5679   -1.4085   -0.7316 C   0  0  0  0  0  0  0  0  0  0  0  0
   -1.0069   -0.1165   -0.5387 O   0  0  0  0  0  0  0  0  0  0  0  0
   -2.0475    0.0950    0.3759 C   0  0  0  0  0  0  0  0  0  0  0  0
   -2.5169   -0.9351    1.1195 N   0  0  0  0  0  0  0  0  0  0  0  0
   -3.4729   -0.6388    2.0221 C   0  0  0  0  0  0  0  0  0  0  0  0
   -3.9789    0.6354    2.2151 C   0  0  0  0  0  0  0  0  0  0  0  0
   -3.4772    1.6807    1.4389 C   0  0  0  0  0  0  0  0  0  0  0  0
   -2.4845    1.4246    0.4971 C   0  0  0  0  0  0  0  0  0  0  0  0
   -1.9085    2.4109   -0.3391 N   0  0  0  0  0  0  0  0  0  0  0  0
   -2.0394    3.7865   -0.2354 C   0  0  0  0  0  0  0  0  0  0  0  0
   -2.6433    4.3584    0.6615 O   0  0  0  0  0  0  0  0  0  0  0  0
   -1.3983    4.4082   -1.2848 N   0  0  0  0  0  0  0  0  0  0  0  0
   -1.2464    5.7612   -1.3412 C   0  0  0  0  0  0  0  0  0  0  0  0
   -1.4692    6.6912   -0.4406 N   0  0  0  0  0  0  0  0  0  0  0  0
   -0.7354    6.2235   -2.5269 O   0  0  0  0  0  0  0  0  0  0  0  0
   -0.6431    7.5731   -2.3382 C   0  0  0  0  0  0  0  0  0  0  0  0
   -1.0876    7.8522   -1.0555 C   0  0  0  0  0  0  0  0  0  0  0  0
   -0.1870    8.5237   -3.2444 C   0  0  0  0  0  0  0  0  0  0  0  0
   -0.1931    9.8494   -2.7887 C   0  0  0  0  0  0  0  0  0  0  0  0
   -0.6412   10.1639   -1.4945 C   0  0  0  0  0  0  0  0  0  0  0  0
   -1.0846    9.1756   -0.5992 C   0  0  0  0  0  0  0  0  0  0  0  0
   -0.6381   11.8525   -0.9411 S   0  0  0  0  0  0  0  0  0  0  0  0
   -0.0785   12.6721   -1.9911 O   0  0  0  0  0  0  0  0  0  0  0  0
   -0.1480   11.8787    0.4158 O   0  0  0  0  0  0  0  0  0  0  0  0
   -2.2826   12.2154   -0.9216 N   0  0  0  0  0  0  0  0  0  0  0  0
    3.8773   -0.6292    0.8540 H   0  0  0  0  0  0  0  0  0  0  0  0
    3.6486   -1.7666   -0.4693 H   0  0  0  0  0  0  0  0  0  0  0  0
    3.1187   -2.1882    1.1746 H   0  0  0  0  0  0  0  0  0  0  0  0
    2.0818    0.3496    2.0379 H   0  0  0  0  0  0  0  0  0  0  0  0
    0.9469   -1.0009    2.1700 H   0  0  0  0  0  0  0  0  0  0  0  0
    0.4683    0.5141    1.3934 H   0  0  0  0  0  0  0  0  0  0  0  0
    1.1257    0.9983   -1.0231 H   0  0  0  0  0  0  0  0  0  0  0  0
    2.3974    0.0472   -1.7938 H   0  0  0  0  0  0  0  0  0  0  0  0
    2.7762    1.1164   -0.4315 H   0  0  0  0  0  0  0  0  0  0  0  0
    2.1610   -3.4390   -0.5340 H   0  0  0  0  0  0  0  0  0  0  0  0
    0.6068   -5.0116   -1.5228 H   0  0  0  0  0  0  0  0  0  0  0  0
   -1.7173   -4.3328   -2.0679 H   0  0  0  0  0  0  0  0  0  0  0  0
   -2.4661   -2.0272   -1.5745 H   0  0  0  0  0  0  0  0  0  0  0  0
   -3.8315   -1.4790    2.6098 H   0  0  0  0  0  0  0  0  0  0  0  0
   -4.7486    0.8179    2.9568 H   0  0  0  0  0  0  0  0  0  0  0  0
   -3.8785    2.6763    1.5942 H   0  0  0  0  0  0  0  0  0  0  0  0
   -1.1914    2.0628   -0.9630 H   0  0  0  0  0  0  0  0  0  0  0  0
   -1.1404    3.8947   -2.1099 H   0  0  0  0  0  0  0  0  0  0  0  0
    0.1553    8.2520   -4.2359 H   0  0  0  0  0  0  0  0  0  0  0  0
    0.1604   10.6360   -3.4550 H   0  0  0  0  0  0  0  0  0  0  0  0
   -1.4098    9.4124    0.4093 H   0  0  0  0  0  0  0  0  0  0  0  0
   -2.8922   11.4068   -1.0368 H   0  0  0  0  0  0  0  0  0  0  0  0
   -2.4740   12.9445   -1.6116 H   0  0  0  0  0  0  0  0  0  0  0  0
  1  2  1  0
  2  3  1  0
  2  4  1  0
  2  5  1  0
  5  6  2  0
  6  7  1  0
  7  8  2  0
  8  9  1  0
  9 10  2  0
 10 11  1  0
 11 12  1  0
 12 13  2  0
 13 14  1  0
 14 15  2  0
 15 16  1  0
 16 17  2  0
 17 18  1  0
 18 19  1  0
 19 20  2  0
 19 21  1  0
 21 22  1  0
 22 23  2  0
 22 24  1  0
 24 25  1  0
 25 26  2  0
 25 27  1  0
 27 28  2  0
 28 29  1  0
 29 30  2  0
 29 31  1  0
 31 32  2  0
 31 33  2  0
 31 34  1  0
 10  5  1  0
 17 12  1  0
 26 23  1  0
 30 26  1  0
  1 35  1  0
  1 36  1  0
  1 37  1  0
  3 38  1  0
  3 39  1  0
  3 40  1  0
  4 41  1  0
  4 42  1  0
  4 43  1  0
  6 44  1  0
  7 45  1  0
  8 46  1  0
  9 47  1  0
 14 48  1  0
 15 49  1  0
 16 50  1  0
 18 51  1  0
 21 52  1  0
 27 53  1  0
 28 54  1  0
 30 55  1  0
 34 56  1  0
 34 57  1  0
M  END
>  <mol_id>  (36) 
Z3015156460

>  <drugclip_rank>  (36) 
37

>  <conformer>  (36) 
37

>  <align_rmsd>  (36) 
0.789

$$$$
MCULE-9624909007
     RDKit          3D

 53 56  0  0  0  0  0  0  0  0999 V2000
    1.0154   -0.7616   -0.4990 C   0  0  0  0  0  0  0  0  0  0  0  0
    2.4176   -0.7093   -0.4496 C   0  0  0  0  0  0  0  0  0  0  0  0
    3.0975    0.5037   -0.5800 C   0  0  0  0  0  0  0  0  0  0  0  0
    2.3854    1.6873   -0.7614 C   0  0  0  0  0  0  0  0  0  0  0  0
    0.9860    1.6717   -0.8147 C   0  0  0  0  0  0  0  0  0  0  0  0
    0.3150    0.4437   -0.6865 C   0  0  0  0  0  0  0  0  0  0  0  0
    0.2084    2.9555   -1.0193 C   0  0  0  0  0  0  0  0  0  0  0  0
    0.4408    3.9641    0.0313 N   0  0  0  0  0  0  0  0  0  0  0  0
   -0.2094    5.2459   -0.3417 C   0  0  0  0  0  0  0  0  0  0  0  0
   -1.2363    5.7725    0.6811 C   0  0  0  0  0  0  0  0  0  0  0  0
   -2.1909    4.7572    1.0065 O   0  0  0  0  0  0  0  0  0  0  0  0
   -1.5699    3.5686    1.5220 C   0  0  0  0  0  0  0  0  0  0  0  0
   -0.0384    3.5214    1.3556 C   0  0  0  0  0  0  0  0  0  0  0  0
    0.2955   -2.0396   -0.3527 C   0  0  0  0  0  0  0  0  0  0  0  0
    0.5416   -2.8787    0.7575 C   0  0  0  0  0  0  0  0  0  0  0  0
   -0.1287   -4.0966    0.9466 C   0  0  0  0  0  0  0  0  0  0  0  0
   -1.0567   -4.4238   -0.0307 C   0  0  0  0  0  0  0  0  0  0  0  0
   -1.3403   -3.6487   -1.1412 C   0  0  0  0  0  0  0  0  0  0  0  0
   -0.6576   -2.4374   -1.3165 C   0  0  0  0  0  0  0  0  0  0  0  0
   -2.3063   -4.2613   -1.9004 N   0  0  0  0  0  0  0  0  0  0  0  0
   -2.5664   -5.3661   -1.2331 C   0  0  0  0  0  0  0  0  0  0  0  0
   -1.8481   -5.5317   -0.0850 O   0  0  0  0  0  0  0  0  0  0  0  0
   -3.4936   -6.2943   -1.6084 N   0  0  0  0  0  0  0  0  0  0  0  0
   -3.7152   -7.4643   -0.9235 C   0  0  0  0  0  0  0  0  0  0  0  0
   -3.1018   -7.8650    0.0622 O   0  0  0  0  0  0  0  0  0  0  0  0
   -4.8266   -8.2933   -1.4876 C   0  0  0  0  0  0  0  0  0  0  0  0
   -4.1828   -9.3852   -2.7173 S   0  0  0  0  0  0  0  0  0  0  0  0
   -5.2399  -10.3257   -3.0427 O   0  0  0  0  0  0  0  0  0  0  0  0
   -3.5977   -8.5619   -3.7607 O   0  0  0  0  0  0  0  0  0  0  0  0
   -2.8808  -10.2969   -1.9146 C   0  0  0  0  0  0  0  0  0  0  0  0
    2.9967   -1.6216   -0.3194 H   0  0  0  0  0  0  0  0  0  0  0  0
    4.1837    0.5251   -0.5404 H   0  0  0  0  0  0  0  0  0  0  0  0
    2.9215    2.6301   -0.8541 H   0  0  0  0  0  0  0  0  0  0  0  0
   -0.7735    0.4288   -0.7179 H   0  0  0  0  0  0  0  0  0  0  0  0
    0.5346    3.3569   -1.9893 H   0  0  0  0  0  0  0  0  0  0  0  0
   -0.8631    2.7376   -1.1244 H   0  0  0  0  0  0  0  0  0  0  0  0
    0.5755    6.0033   -0.4759 H   0  0  0  0  0  0  0  0  0  0  0  0
   -0.7215    5.1535   -1.3115 H   0  0  0  0  0  0  0  0  0  0  0  0
   -0.7522    6.1310    1.5986 H   0  0  0  0  0  0  0  0  0  0  0  0
   -1.7841    6.6207    0.2542 H   0  0  0  0  0  0  0  0  0  0  0  0
   -2.0377    2.7145    1.0158 H   0  0  0  0  0  0  0  0  0  0  0  0
   -1.8251    3.4942    2.5854 H   0  0  0  0  0  0  0  0  0  0  0  0
    0.4137    4.1910    2.0999 H   0  0  0  0  0  0  0  0  0  0  0  0
    0.3359    2.5258    1.6222 H   0  0  0  0  0  0  0  0  0  0  0  0
    1.2671   -2.5713    1.5114 H   0  0  0  0  0  0  0  0  0  0  0  0
    0.0534   -4.7353    1.8021 H   0  0  0  0  0  0  0  0  0  0  0  0
   -0.8681   -1.8270   -2.1891 H   0  0  0  0  0  0  0  0  0  0  0  0
   -3.9474   -6.0941   -2.4904 H   0  0  0  0  0  0  0  0  0  0  0  0
   -5.2908   -8.8880   -0.6961 H   0  0  0  0  0  0  0  0  0  0  0  0
   -5.5957   -7.6687   -1.9506 H   0  0  0  0  0  0  0  0  0  0  0  0
   -2.0597   -9.6219   -1.6700 H   0  0  0  0  0  0  0  0  0  0  0  0
   -3.2861  -10.7706   -1.0182 H   0  0  0  0  0  0  0  0  0  0  0  0
   -2.5293  -11.0615   -2.6115 H   0  0  0  0  0  0  0  0  0  0  0  0
  1  2  2  0
  2  3  1  0
  3  4  2  0
  4  5  1  0
  5  6  2  0
  5  7  1  0
  7  8  1  0
  8  9  1  0
  9 10  1  0
 10 11  1  0
 11 12  1  0
 12 13  1  0
  1 14  1  0
 14 15  2  0
 15 16  1  0
 16 17  2  0
 17 18  1  0
 18 19  2  0
 18 20  1  0
 20 21  2  0
 21 22  1  0
 21 23  1  0
 23 24  1  0
 24 25  2  0
 24 26  1  0
 26 27  1  0
 27 28  2  0
 27 29  2  0
 27 30  1  0
  6  1  1  0
 13  8  1  0
 19 14  1  0
 22 17  1  0
  2 31  1  0
  3 32  1  0
  4 33  1  0
  6 34  1  0
  7 35  1  0
  7 36  1  0
  9 37  1  0
  9 38  1  0
 10 39  1  0
 10 40  1  0
 12 41  1  0
 12 42  1  0
 13 43  1  0
 13 44  1  0
 15 45  1  0
 16 46  1  0
 19 47  1  0
 23 48  1  0
 26 49  1  0
 26 50  1  0
 30 51  1  0
 30 52  1  0
 30 53  1  0
M  END
>  <mol_id>  (37) 
MCULE-9624909007

>  <drugclip_rank>  (37) 
38

>  <conformer>  (37) 
37

>  <align_rmsd>  (37) 
0.931

$$$$
Z9304513747
     RDKit          3D

 45 47  0  0  0  0  0  0  0  0999 V2000
   -2.7023   -9.1781   -2.6532 N   0  0  0  0  0  0  0  0  0  0  0  0
   -2.7047   -7.8753   -1.9879 C   0  0  2  0  0  0  0  0  0  0  0  0
   -1.4450   -7.7082   -1.1236 C   0  0  0  0  0  0  0  0  0  0  0  0
   -1.6308   -6.7302    0.0437 C   0  0  0  0  0  0  0  0  0  0  0  0
   -2.6871   -5.6584   -0.2387 C   0  0  2  0  0  0  0  0  0  0  0  0
   -4.0556   -6.3139   -0.5052 C   0  0  0  0  0  0  0  0  0  0  0  0
   -3.9732   -7.7030   -1.1543 C   0  0  0  0  0  0  0  0  0  0  0  0
   -2.3382   -4.9122   -1.4153 O   0  0  0  0  0  0  0  0  0  0  0  0
   -1.4691   -3.8603   -1.2168 C   0  0  0  0  0  0  0  0  0  0  0  0
   -1.1431   -3.1196   -2.3398 C   0  0  0  0  0  0  0  0  0  0  0  0
   -0.2611   -2.0487   -2.1984 C   0  0  0  0  0  0  0  0  0  0  0  0
    0.2779   -1.7397   -0.9436 C   0  0  0  0  0  0  0  0  0  0  0  0
   -0.1234   -2.5574    0.1154 C   0  0  0  0  0  0  0  0  0  0  0  0
   -0.9772   -3.6046    0.0106 N   0  0  0  0  0  0  0  0  0  0  0  0
    1.2106   -0.6193   -0.7530 C   0  0  0  0  0  0  0  0  0  0  0  0
    2.4330   -0.7977   -0.0787 C   0  0  0  0  0  0  0  0  0  0  0  0
    3.3229    0.2671    0.1014 C   0  0  0  0  0  0  0  0  0  0  0  0
    2.9970    1.5297   -0.3971 C   0  0  0  0  0  0  0  0  0  0  0  0
    1.7954    1.7245   -1.0584 C   0  0  0  0  0  0  0  0  0  0  0  0
    1.4426    2.9367   -1.5069 F   0  0  0  0  0  0  0  0  0  0  0  0
    0.9077    0.6643   -1.2387 C   0  0  0  0  0  0  0  0  0  0  0  0
    4.1149    2.8717   -0.1867 S   0  0  0  0  0  0  0  0  0  0  0  0
    4.9536    2.5680    0.9519 O   0  0  0  0  0  0  0  0  0  0  0  0
    4.6602    3.1933   -1.4828 O   0  0  0  0  0  0  0  0  0  0  0  0
    3.1572    4.1527    0.3211 N   0  0  0  0  0  0  0  0  0  0  0  0
   -1.8344   -9.2903   -3.1765 H   0  0  0  0  0  0  0  0  0  0  0  0
   -2.7098   -9.9230   -1.9574 H   0  0  0  0  0  0  0  0  0  0  0  0
   -2.7011   -7.1130   -2.7763 H   0  0  0  0  0  0  0  0  0  0  0  0
   -1.1194   -8.6702   -0.7062 H   0  0  0  0  0  0  0  0  0  0  0  0
   -0.6218   -7.3666   -1.7644 H   0  0  0  0  0  0  0  0  0  0  0  0
   -0.6596   -6.2773    0.2721 H   0  0  0  0  0  0  0  0  0  0  0  0
   -1.9286   -7.2921    0.9383 H   0  0  0  0  0  0  0  0  0  0  0  0
   -2.8158   -4.9905    0.6225 H   0  0  0  0  0  0  0  0  0  0  0  0
   -4.6579   -5.6569   -1.1453 H   0  0  0  0  0  0  0  0  0  0  0  0
   -4.6010   -6.4184    0.4410 H   0  0  0  0  0  0  0  0  0  0  0  0
   -4.8692   -7.8653   -1.7662 H   0  0  0  0  0  0  0  0  0  0  0  0
   -3.9998   -8.4652   -0.3635 H   0  0  0  0  0  0  0  0  0  0  0  0
   -1.5638   -3.3731   -3.3065 H   0  0  0  0  0  0  0  0  0  0  0  0
    0.0099   -1.4700   -3.0785 H   0  0  0  0  0  0  0  0  0  0  0  0
    0.2373   -2.3822    1.1265 H   0  0  0  0  0  0  0  0  0  0  0  0
    2.7143   -1.7804    0.2997 H   0  0  0  0  0  0  0  0  0  0  0  0
    4.2666    0.0984    0.6178 H   0  0  0  0  0  0  0  0  0  0  0  0
   -0.0313    0.8576   -1.7528 H   0  0  0  0  0  0  0  0  0  0  0  0
    3.3148    4.3511    1.3087 H   0  0  0  0  0  0  0  0  0  0  0  0
    2.1769    4.0872    0.0505 H   0  0  0  0  0  0  0  0  0  0  0  0
  1  2  1  0
  2  3  1  0
  3  4  1  0
  4  5  1  0
  5  6  1  0
  6  7  1  0
  5  8  1  0
  8  9  1  0
  9 10  2  0
 10 11  1  0
 11 12  2  0
 12 13  1  0
 13 14  2  0
 12 15  1  0
 15 16  2  0
 16 17  1  0
 17 18  2  0
 18 19  1  0
 19 20  1  0
 19 21  2  0
 18 22  1  0
 22 23  2  0
 22 24  2  0
 22 25  1  0
  7  2  1  0
 14  9  1  0
 21 15  1  0
  1 26  1  0
  1 27  1  0
  2 28  1  6
  3 29  1  0
  3 30  1  0
  4 31  1  0
  4 32  1  0
  5 33  1  1
  6 34  1  0
  6 35  1  0
  7 36  1  0
  7 37  1  0
 10 38  1  0
 11 39  1  0
 13 40  1  0
 16 41  1  0
 17 42  1  0
 21 43  1  0
 25 44  1  0
 25 45  1  0
M  END
>  <mol_id>  (38) 
Z9304513747

>  <drugclip_rank>  (38) 
39

>  <conformer>  (38) 
28

>  <align_rmsd>  (38) 
0.656

$$$$
Z3772051645
     RDKit          3D

 48 50  0  0  0  0  0  0  0  0999 V2000
   -4.9310   -0.0482   -1.2817 C   0  0  0  0  0  0  0  0  0  0  0  0
   -4.7894   -1.2623   -2.1214 C   0  0  0  0  0  0  0  0  0  0  0  0
   -5.7182   -1.5564   -3.0414 N   0  0  0  0  0  0  0  0  0  0  0  0
   -5.2598   -2.6814   -3.6179 N   0  0  0  0  0  0  0  0  0  0  0  0
   -6.0416   -3.3244   -4.6467 C   0  0  0  0  0  0  0  0  0  0  0  0
   -5.5814   -2.9350   -6.0218 C   0  0  0  0  0  0  0  0  0  0  0  0
   -6.3349   -3.5793   -6.9506 F   0  0  0  0  0  0  0  0  0  0  0  0
   -5.6962   -1.6152   -6.2700 F   0  0  0  0  0  0  0  0  0  0  0  0
   -4.2992   -3.2961   -6.2484 F   0  0  0  0  0  0  0  0  0  0  0  0
   -4.1026   -3.1408   -3.0651 C   0  0  0  0  0  0  0  0  0  0  0  0
   -3.7543   -2.2324   -2.0977 C   0  0  0  0  0  0  0  0  0  0  0  0
   -2.6793   -2.2354   -1.2868 N   0  0  0  0  0  0  0  0  0  0  0  0
   -1.5921   -3.1020   -1.1815 C   0  0  0  0  0  0  0  0  0  0  0  0
   -1.4783   -4.1913   -1.9537 N   0  0  0  0  0  0  0  0  0  0  0  0
   -0.3790   -4.9473   -1.7831 C   0  0  0  0  0  0  0  0  0  0  0  0
    0.6003   -4.6653   -0.8623 C   0  0  0  0  0  0  0  0  0  0  0  0
    2.1011   -5.8006   -0.6978 Br  0  0  0  0  0  0  0  0  0  0  0  0
    0.4054   -3.5326   -0.0840 C   0  0  0  0  0  0  0  0  0  0  0  0
   -0.6865   -2.7589   -0.2481 N   0  0  0  0  0  0  0  0  0  0  0  0
    1.3835   -3.1578    0.8582 N   0  0  0  0  0  0  0  0  0  0  0  0
    1.0992   -1.9904    1.6812 C   0  0  0  0  0  0  0  0  0  0  0  0
    1.4528   -0.7053    0.9652 C   0  0  0  0  0  0  0  0  0  0  0  0
    2.7509   -0.4975    0.4722 C   0  0  0  0  0  0  0  0  0  0  0  0
    3.0833    0.6893   -0.1819 C   0  0  0  0  0  0  0  0  0  0  0  0
    2.1134    1.6801   -0.3368 C   0  0  0  0  0  0  0  0  0  0  0  0
    0.8145    1.4896    0.1379 C   0  0  0  0  0  0  0  0  0  0  0  0
    0.4900    0.3005    0.7918 C   0  0  0  0  0  0  0  0  0  0  0  0
    2.5147    3.1935   -1.1652 S   0  0  0  0  0  0  0  0  0  0  0  0
    1.3386    3.6675   -1.8544 O   0  0  0  0  0  0  0  0  0  0  0  0
    3.7941    3.0419   -1.8205 O   0  0  0  0  0  0  0  0  0  0  0  0
    2.8038    4.2222    0.1387 N   0  0  0  0  0  0  0  0  0  0  0  0
   -5.8799    0.4630   -1.4695 H   0  0  0  0  0  0  0  0  0  0  0  0
   -4.8962   -0.3113   -0.2202 H   0  0  0  0  0  0  0  0  0  0  0  0
   -4.1197    0.6557   -1.4903 H   0  0  0  0  0  0  0  0  0  0  0  0
   -7.0919   -3.0555   -4.4966 H   0  0  0  0  0  0  0  0  0  0  0  0
   -5.9533   -4.4060   -4.5031 H   0  0  0  0  0  0  0  0  0  0  0  0
   -3.6277   -4.0485   -3.4081 H   0  0  0  0  0  0  0  0  0  0  0  0
   -2.5200   -1.4818   -0.6304 H   0  0  0  0  0  0  0  0  0  0  0  0
   -0.3155   -5.8124   -2.4363 H   0  0  0  0  0  0  0  0  0  0  0  0
    1.6343   -3.9690    1.4146 H   0  0  0  0  0  0  0  0  0  0  0  0
    1.7269   -2.0419    2.5796 H   0  0  0  0  0  0  0  0  0  0  0  0
    0.0649   -1.9876    2.0457 H   0  0  0  0  0  0  0  0  0  0  0  0
    3.5026   -1.2775    0.5808 H   0  0  0  0  0  0  0  0  0  0  0  0
    4.0888    0.8243   -0.5716 H   0  0  0  0  0  0  0  0  0  0  0  0
    0.0534    2.2538   -0.0071 H   0  0  0  0  0  0  0  0  0  0  0  0
   -0.5248    0.1521    1.1502 H   0  0  0  0  0  0  0  0  0  0  0  0
    3.7824    4.5109    0.1088 H   0  0  0  0  0  0  0  0  0  0  0  0
    2.5614    3.8042    1.0361 H   0  0  0  0  0  0  0  0  0  0  0  0
  1  2  1  0
  2  3  2  0
  3  4  1  0
  4  5  1  0
  5  6  1  0
  6  7  1  0
  6  8  1  0
  6  9  1  0
  4 10  1  0
 10 11  2  0
 11 12  1  0
 12 13  1  0
 13 14  2  0
 14 15  1  0
 15 16  2  0
 16 17  1  0
 16 18  1  0
 18 19  2  0
 18 20  1  0
 20 21  1  0
 21 22  1  0
 22 23  2  0
 23 24  1  0
 24 25  2  0
 25 26  1  0
 26 27  2  0
 25 28  1  0
 28 29  2  0
 28 30  2  0
 28 31  1  0
 11  2  1  0
 19 13  1  0
 27 22  1  0
  1 32  1  0
  1 33  1  0
  1 34  1  0
  5 35  1  0
  5 36  1  0
 10 37  1  0
 12 38  1  0
 15 39  1  0
 20 40  1  0
 21 41  1  0
 21 42  1  0
 23 43  1  0
 24 44  1  0
 26 45  1  0
 27 46  1  0
 31 47  1  0
 31 48  1  0
M  END
>  <mol_id>  (39) 
Z3772051645

>  <drugclip_rank>  (39) 
40

>  <conformer>  (39) 
33

>  <align_rmsd>  (39) 
0.721

$$$$
MCULE-2683983486
     RDKit          3D

 51 53  0  0  0  0  0  0  0  0999 V2000
   -2.3143   -0.6343    0.1831 C   0  0  0  0  0  0  0  0  0  0  0  0
   -1.2989   -0.3579    1.1183 C   0  0  0  0  0  0  0  0  0  0  0  0
   -1.1982    0.8934    1.7336 C   0  0  0  0  0  0  0  0  0  0  0  0
   -2.1317    1.8843    1.4309 C   0  0  0  0  0  0  0  0  0  0  0  0
   -3.1448    1.6450    0.5041 C   0  0  0  0  0  0  0  0  0  0  0  0
   -3.2305    0.3926   -0.1131 C   0  0  0  0  0  0  0  0  0  0  0  0
   -1.9879    3.4792    2.1998 S   0  0  0  0  0  0  0  0  0  0  0  0
   -2.9061    4.3796    1.5270 O   0  0  0  0  0  0  0  0  0  0  0  0
   -0.5739    3.7881    2.2906 O   0  0  0  0  0  0  0  0  0  0  0  0
   -2.6056    3.2043    3.8397 C   0  0  0  0  0  0  0  0  0  0  0  0
   -2.4030   -1.9506   -0.4812 C   0  0  0  0  0  0  0  0  0  0  0  0
   -3.6281   -2.6074   -0.6357 C   0  0  0  0  0  0  0  0  0  0  0  0
   -3.6550   -3.8327   -1.2773 C   0  0  0  0  0  0  0  0  0  0  0  0
   -2.5608   -4.4477   -1.7676 N   0  0  0  0  0  0  0  0  0  0  0  0
   -1.3759   -3.8233   -1.6129 C   0  0  0  0  0  0  0  0  0  0  0  0
   -1.2602   -2.5886   -0.9891 C   0  0  0  0  0  0  0  0  0  0  0  0
   -0.3003   -4.5301   -2.1403 N   0  0  0  0  0  0  0  0  0  0  0  0
    1.0435   -4.2511   -2.0715 C   0  0  0  0  0  0  0  0  0  0  0  0
    1.5583   -3.2769   -1.5289 O   0  0  0  0  0  0  0  0  0  0  0  0
    1.9020   -5.2858   -2.8154 C   0  0  0  0  0  0  0  0  0  0  0  0
    1.2595   -6.6205   -2.8344 N   0  0  0  0  0  0  0  0  0  0  0  0
    1.2846   -7.2746   -1.5034 C   0  0  0  0  0  0  0  0  0  0  0  0
    2.1568   -8.5475   -1.4105 C   0  0  0  0  0  0  0  0  0  0  0  0
    1.7837   -9.5616   -2.4094 N   0  0  0  0  0  0  0  0  0  0  0  0
    2.7847  -10.6189   -2.4862 C   0  0  0  0  0  0  0  0  0  0  0  0
    1.4995   -8.9636   -3.7265 C   0  0  0  0  0  0  0  0  0  0  0  0
    1.8926   -7.4748   -3.8583 C   0  0  0  0  0  0  0  0  0  0  0  0
   -0.5647   -1.1217    1.3724 H   0  0  0  0  0  0  0  0  0  0  0  0
   -0.3832    1.0853    2.4292 H   0  0  0  0  0  0  0  0  0  0  0  0
   -3.8584    2.4223    0.2389 H   0  0  0  0  0  0  0  0  0  0  0  0
   -4.0104    0.2343   -0.8556 H   0  0  0  0  0  0  0  0  0  0  0  0
   -3.6412    2.8641    3.7789 H   0  0  0  0  0  0  0  0  0  0  0  0
   -1.9816    2.4621    4.3391 H   0  0  0  0  0  0  0  0  0  0  0  0
   -2.5580    4.1515    4.3819 H   0  0  0  0  0  0  0  0  0  0  0  0
   -4.5517   -2.1826   -0.2567 H   0  0  0  0  0  0  0  0  0  0  0  0
   -4.5884   -4.3689   -1.4182 H   0  0  0  0  0  0  0  0  0  0  0  0
   -0.2975   -2.0987   -0.9055 H   0  0  0  0  0  0  0  0  0  0  0  0
   -0.5494   -5.4204   -2.5614 H   0  0  0  0  0  0  0  0  0  0  0  0
    2.0097   -4.9042   -3.8381 H   0  0  0  0  0  0  0  0  0  0  0  0
    2.8947   -5.3301   -2.3542 H   0  0  0  0  0  0  0  0  0  0  0  0
    0.2483   -7.5495   -1.2647 H   0  0  0  0  0  0  0  0  0  0  0  0
    1.5988   -6.5806   -0.7150 H   0  0  0  0  0  0  0  0  0  0  0  0
    2.0430   -8.9768   -0.4079 H   0  0  0  0  0  0  0  0  0  0  0  0
    3.2111   -8.2590   -1.5199 H   0  0  0  0  0  0  0  0  0  0  0  0
    2.9499  -11.0680   -1.5003 H   0  0  0  0  0  0  0  0  0  0  0  0
    2.4397  -11.4254   -3.1431 H   0  0  0  0  0  0  0  0  0  0  0  0
    3.7450  -10.2516   -2.8637 H   0  0  0  0  0  0  0  0  0  0  0  0
    1.9778   -9.5266   -4.5379 H   0  0  0  0  0  0  0  0  0  0  0  0
    0.4188   -9.0530   -3.8978 H   0  0  0  0  0  0  0  0  0  0  0  0
    1.5907   -7.1213   -4.8516 H   0  0  0  0  0  0  0  0  0  0  0  0
    2.9870   -7.3969   -3.8072 H   0  0  0  0  0  0  0  0  0  0  0  0
  1  2  2  0
  2  3  1  0
  3  4  2  0
  4  5  1  0
  5  6  2  0
  4  7  1  0
  7  8  2  0
  7  9  2  0
  7 10  1  0
  1 11  1  0
 11 12  2  0
 12 13  1  0
 13 14  2  0
 14 15  1  0
 15 16  2  0
 15 17  1  0
 17 18  1  0
 18 19  2  0
 18 20  1  0
 20 21  1  0
 21 22  1  0
 22 23  1  0
 23 24  1  0
 24 25  1  0
 24 26  1  0
 26 27  1  0
  6  1  1  0
 16 11  1  0
 27 21  1  0
  2 28  1  0
  3 29  1  0
  5 30  1  0
  6 31  1  0
 10 32  1  0
 10 33  1  0
 10 34  1  0
 12 35  1  0
 13 36  1  0
 16 37  1  0
 17 38  1  0
 20 39  1  0
 20 40  1  0
 22 41  1  0
 22 42  1  0
 23 43  1  0
 23 44  1  0
 25 45  1  0
 25 46  1  0
 25 47  1  0
 26 48  1  0
 26 49  1  0
 27 50  1  0
 27 51  1  0
M  END
>  <mol_id>  (40) 
MCULE-2683983486

>  <drugclip_rank>  (40) 
41

>  <conformer>  (40) 
20

>  <align_rmsd>  (40) 
0.665

$$$$
Z8803916050
     RDKit          3D

 46 48  0  0  0  0  0  0  0  0999 V2000
   -1.1975   -0.1937   -1.2246 Cl  0  0  0  0  0  0  0  0  0  0  0  0
   -4.3783   -0.3185   -3.9610 F   0  0  0  0  0  0  0  0  0  0  0  0
   -4.8281    0.2590   -2.8037 C   0  0  0  0  0  0  0  0  0  0  0  0
   -5.8370    1.2002   -2.8306 C   0  0  0  0  0  0  0  0  0  0  0  0
   -6.2489    1.7494   -1.6195 C   0  0  0  0  0  0  0  0  0  0  0  0
   -5.6503    1.3478   -0.4424 C   0  0  0  0  0  0  0  0  0  0  0  0
   -4.6396    0.4082   -0.3903 C   0  0  0  0  0  0  0  0  0  0  0  0
   -4.2275   -0.1451   -1.6303 C   0  0  0  0  0  0  0  0  0  0  0  0
   -3.1064   -1.0579   -1.5432 C   0  0  0  0  0  0  0  0  0  0  0  0
   -3.1607   -2.4148   -1.5224 C   0  0  0  0  0  0  0  0  0  0  0  0
   -1.9726   -3.1288   -1.3855 C   0  0  0  0  0  0  0  0  0  0  0  0
   -4.3726   -3.0574   -1.6443 C   0  0  0  0  0  0  0  0  0  0  0  0
   -5.6681   -2.4084   -1.8212 C   0  0  0  0  0  0  0  0  0  0  0  0
   -4.2861   -4.4621   -1.6152 C   0  0  0  0  0  0  0  0  0  0  0  0
   -3.0915   -5.1222   -1.4777 C   0  0  0  0  0  0  0  0  0  0  0  0
   -1.9304   -4.4717   -1.3624 N   0  0  0  0  0  0  0  0  0  0  0  0
   -1.8493   -0.4423   -1.4278 C   0  0  0  0  0  0  0  0  0  0  0  0
   -0.6862   -1.1548   -1.2947 C   0  0  0  0  0  0  0  0  0  0  0  0
   -0.7837   -2.4955   -1.2769 N   0  0  0  0  0  0  0  0  0  0  0  0
    0.6363   -0.5659   -1.1723 C   0  0  0  0  0  0  0  0  0  0  0  0
    1.7166   -1.4139   -1.0448 C   0  0  0  0  0  0  0  0  0  0  0  0
    3.0194   -0.9528   -0.9218 C   0  0  0  0  0  0  0  0  0  0  0  0
    3.2591    0.4045   -0.9254 C   0  0  0  0  0  0  0  0  0  0  0  0
    2.1817    1.2634   -1.0528 C   0  0  0  0  0  0  0  0  0  0  0  0
    0.8810    0.7888   -1.1754 C   0  0  0  0  0  0  0  0  0  0  0  0
    2.5391    2.9784   -1.0519 S   0  0  0  0  0  0  0  0  0  0  0  0
    1.5400    3.7721   -1.8319 O   0  0  0  0  0  0  0  0  0  0  0  0
    3.9363    3.2051   -1.5579 O   0  0  0  0  0  0  0  0  0  0  0  0
    2.4861    3.5531    0.5759 N   0  0  0  0  0  0  0  0  0  0  0  0
   -2.4841   -0.6224   -1.4371 H   0  0  0  0  0  0  0  0  0  0  0  0
   -6.2646    1.4728   -3.7777 H   0  0  0  0  0  0  0  0  0  0  0  0
   -7.0409    2.4857   -1.6602 H   0  0  0  0  0  0  0  0  0  0  0  0
   -6.0240    1.8213    0.4727 H   0  0  0  0  0  0  0  0  0  0  0  0
   -4.1815    0.1036    0.5310 H   0  0  0  0  0  0  0  0  0  0  0  0
   -6.0270   -1.7034   -1.0949 H   0  0  0  0  0  0  0  0  0  0  0  0
   -6.4178   -3.2679   -1.6110 H   0  0  0  0  0  0  0  0  0  0  0  0
   -5.9437   -2.2428   -2.8923 H   0  0  0  0  0  0  0  0  0  0  0  0
   -5.1751   -5.0796   -1.7020 H   0  0  0  0  0  0  0  0  0  0  0  0
   -3.0633   -6.2115   -1.4592 H   0  0  0  0  0  0  0  0  0  0  0  0
   -1.7637    0.6371   -1.4413 H   0  0  0  0  0  0  0  0  0  0  0  0
    1.6021   -2.4948   -1.0341 H   0  0  0  0  0  0  0  0  0  0  0  0
    3.8631   -1.6294   -0.8219 H   0  0  0  0  0  0  0  0  0  0  0  0
    4.2562    0.7547   -0.8312 H   0  0  0  0  0  0  0  0  0  0  0  0
    0.0651    1.4860   -1.2728 H   0  0  0  0  0  0  0  0  0  0  0  0
    2.9772    4.4572    0.6961 H   0  0  0  0  0  0  0  0  0  0  0  0
    2.8132    2.8419    1.2666 H   0  0  0  0  0  0  0  0  0  0  0  0
  2  3  1  0
  3  4  2  0
  4  5  1  0
  5  6  2  0
  6  7  1  0
  7  8  2  0
  8  9  1  0
  9 10  1  0
 10 11  1  0
 10 12  2  0
 12 13  1  0
 12 14  1  0
 14 15  2  0
 15 16  1  0
  9 17  2  0
 17 18  1  0
 18 19  2  0
 18 20  1  0
 20 21  2  0
 21 22  1  0
 22 23  2  0
 23 24  1  0
 24 25  2  0
 24 26  1  0
 26 27  2  0
 26 28  2  0
 26 29  1  0
  8  3  1  0
 16 11  2  0
 19 11  1  0
 25 20  1  0
  1 30  1  0
  4 31  1  0
  5 32  1  0
  6 33  1  0
  7 34  1  0
 13 35  1  0
 13 36  1  0
 13 37  1  0
 14 38  1  0
 15 39  1  0
 17 40  1  0
 21 41  1  0
 22 42  1  0
 23 43  1  0
 25 44  1  0
 29 45  1  0
 29 46  1  0
M  END
>  <mol_id>  (41) 
Z8803916050

>  <drugclip_rank>  (41) 
42

>  <conformer>  (41) 
6

>  <align_rmsd>  (41) 
1.103

$$$$
Z6319026856
     RDKit          3D

 60 63  0  0  0  0  0  0  0  0999 V2000
   -0.6832   -0.1747   -2.4134 S   0  0  0  0  0  0  0  0  0  0  0  0
    0.9106   -0.7872   -2.2905 C   0  0  0  0  0  0  0  0  0  0  0  0
    1.7743    0.2258   -1.9417 C   0  0  0  0  0  0  0  0  0  0  0  0
    1.1976    1.4670   -1.7685 N   0  0  0  0  0  0  0  0  0  0  0  0
   -0.1021    1.3853   -1.9862 C   0  0  0  0  0  0  0  0  0  0  0  0
   -1.0451    2.5542   -1.8383 C   0  0  0  0  0  0  0  0  0  0  0  0
   -0.9675    3.4590   -3.0625 C   0  0  0  0  0  0  0  0  0  0  0  0
   -0.6031    3.3317   -0.6663 N   0  0  0  0  0  0  0  0  0  0  0  0
   -1.5008    3.2809    0.7379 S   0  0  0  0  0  0  0  0  0  0  0  0
   -2.8312    3.7343    0.3898 O   0  0  0  0  0  0  0  0  0  0  0  0
   -0.7338    3.9441    1.7678 O   0  0  0  0  0  0  0  0  0  0  0  0
   -1.5966    1.5391    1.1340 C   0  0  0  0  0  0  0  0  0  0  0  0
   -0.4610    0.7763    1.5167 C   0  0  0  0  0  0  0  0  0  0  0  0
   -0.6462   -0.6143    1.7580 C   0  0  0  0  0  0  0  0  0  0  0  0
    0.8453    1.2984    1.6760 C   0  0  0  0  0  0  0  0  0  0  0  0
    1.8925    0.4696    2.0434 C   0  0  0  0  0  0  0  0  0  0  0  0
    1.7499   -0.8416    2.2826 N   0  0  0  0  0  0  0  0  0  0  0  0
    0.4960   -1.3333    2.1578 C   0  0  0  0  0  0  0  0  0  0  0  0
   -2.8640    0.9512    1.0533 C   0  0  0  0  0  0  0  0  0  0  0  0
   -3.0234   -0.4090    1.2958 C   0  0  0  0  0  0  0  0  0  0  0  0
   -1.9279   -1.2291    1.5895 C   0  0  0  0  0  0  0  0  0  0  0  0
   -2.1106   -2.6036    1.8472 N   0  0  0  0  0  0  0  0  0  0  0  0
   -3.2468   -3.3077    1.2227 C   0  0  0  0  0  0  0  0  0  0  0  0
   -3.0058   -4.8443    1.2846 C   0  0  0  0  0  0  0  0  0  0  0  0
   -3.2900   -5.3573    2.7054 C   0  0  0  0  0  0  0  0  0  0  0  0
   -3.0412   -6.8586    2.8261 C   0  0  0  0  0  0  0  0  0  0  0  0
   -1.7989   -7.3133    2.0636 C   0  0  0  0  0  0  0  0  0  0  0  0
   -0.8741   -6.1518    1.7282 C   0  0  0  0  0  0  0  0  0  0  0  0
   -1.5754   -5.1506    0.8797 N   0  0  0  0  0  0  0  0  0  0  0  0
   -1.2768   -5.2411   -0.7983 S   0  0  0  0  0  0  0  0  0  0  0  0
   -2.2405   -4.4070   -1.4828 O   0  0  0  0  0  0  0  0  0  0  0  0
   -1.0964   -6.6288   -1.1564 O   0  0  0  0  0  0  0  0  0  0  0  0
    0.2979   -4.4198   -0.8930 C   0  0  0  0  0  0  0  0  0  0  0  0
    1.1430   -1.8247   -2.4828 H   0  0  0  0  0  0  0  0  0  0  0  0
    2.8449    0.1158   -1.8116 H   0  0  0  0  0  0  0  0  0  0  0  0
   -2.0820    2.2219   -1.7206 H   0  0  0  0  0  0  0  0  0  0  0  0
    0.0517    3.8267   -3.2297 H   0  0  0  0  0  0  0  0  0  0  0  0
   -1.2819    2.9253   -3.9673 H   0  0  0  0  0  0  0  0  0  0  0  0
   -1.6156    4.3304   -2.9394 H   0  0  0  0  0  0  0  0  0  0  0  0
    0.4079    3.4012   -0.5460 H   0  0  0  0  0  0  0  0  0  0  0  0
    1.0778    2.3472    1.5273 H   0  0  0  0  0  0  0  0  0  0  0  0
    2.8982    0.8636    2.1595 H   0  0  0  0  0  0  0  0  0  0  0  0
    0.4375   -2.3875    2.4138 H   0  0  0  0  0  0  0  0  0  0  0  0
   -3.7441    1.5421    0.8076 H   0  0  0  0  0  0  0  0  0  0  0  0
   -4.0296   -0.8159    1.2446 H   0  0  0  0  0  0  0  0  0  0  0  0
   -1.2712   -3.1486    1.6525 H   0  0  0  0  0  0  0  0  0  0  0  0
   -3.3433   -2.9980    0.1775 H   0  0  0  0  0  0  0  0  0  0  0  0
   -4.1822   -3.0553    1.7347 H   0  0  0  0  0  0  0  0  0  0  0  0
   -3.6977   -5.3496    0.5993 H   0  0  0  0  0  0  0  0  0  0  0  0
   -4.3274   -5.1399    2.9893 H   0  0  0  0  0  0  0  0  0  0  0  0
   -2.6547   -4.8339    3.4333 H   0  0  0  0  0  0  0  0  0  0  0  0
   -2.9444   -7.1149    3.8871 H   0  0  0  0  0  0  0  0  0  0  0  0
   -3.9112   -7.4162    2.4529 H   0  0  0  0  0  0  0  0  0  0  0  0
   -1.2586   -8.0629    2.6507 H   0  0  0  0  0  0  0  0  0  0  0  0
   -2.1133   -7.8125    1.1390 H   0  0  0  0  0  0  0  0  0  0  0  0
   -0.5220   -5.6502    2.6386 H   0  0  0  0  0  0  0  0  0  0  0  0
    0.0253   -6.5248    1.2299 H   0  0  0  0  0  0  0  0  0  0  0  0
    1.0377   -4.9772   -0.3185 H   0  0  0  0  0  0  0  0  0  0  0  0
    0.1830   -3.4060   -0.5111 H   0  0  0  0  0  0  0  0  0  0  0  0
    0.5938   -4.3864   -1.9438 H   0  0  0  0  0  0  0  0  0  0  0  0
  1  2  1  0
  2  3  2  0
  3  4  1  0
  4  5  2  0
  5  6  1  0
  6  7  1  0
  6  8  1  0
  8  9  1  0
  9 10  2  0
  9 11  2  0
  9 12  1  0
 12 13  1  0
 13 14  1  0
 13 15  2  0
 15 16  1  0
 16 17  2  0
 17 18  1  0
 12 19  2  0
 19 20  1  0
 20 21  2  0
 21 22  1  0
 22 23  1  0
 23 24  1  0
 24 25  1  0
 25 26  1  0
 26 27  1  0
 27 28  1  0
 28 29  1  0
 29 30  1  0
 30 31  2  0
 30 32  2  0
 30 33  1  0
  5  1  1  0
 21 14  1  0
 18 14  2  0
 29 24  1  0
  2 34  1  0
  3 35  1  0
  6 36  1  0
  7 37  1  0
  7 38  1  0
  7 39  1  0
  8 40  1  0
 15 41  1  0
 16 42  1  0
 18 43  1  0
 19 44  1  0
 20 45  1  0
 22 46  1  0
 23 47  1  0
 23 48  1  0
 24 49  1  0
 25 50  1  0
 25 51  1  0
 26 52  1  0
 26 53  1  0
 27 54  1  0
 27 55  1  0
 28 56  1  0
 28 57  1  0
 33 58  1  0
 33 59  1  0
 33 60  1  0
M  END
>  <mol_id>  (42) 
Z6319026856

>  <drugclip_rank>  (42) 
43

>  <conformer>  (42) 
3

>  <align_rmsd>  (42) 
1.415

$$$$
Z3772051641
     RDKit          3D

 48 50  0  0  0  0  0  0  0  0999 V2000
   -5.5591   -2.6184    1.2214 C   0  0  0  0  0  0  0  0  0  0  0  0
   -4.1790   -2.4531    1.7390 C   0  0  0  0  0  0  0  0  0  0  0  0
   -3.9850   -1.8686    2.9309 N   0  0  0  0  0  0  0  0  0  0  0  0
   -2.6505   -1.8997    3.0935 N   0  0  0  0  0  0  0  0  0  0  0  0
   -2.0621   -1.2986    4.2667 C   0  0  0  0  0  0  0  0  0  0  0  0
   -1.5812   -2.3325    5.2449 C   0  0  0  0  0  0  0  0  0  0  0  0
   -2.5602   -3.1528    5.6757 F   0  0  0  0  0  0  0  0  0  0  0  0
   -0.5899   -3.0941    4.7282 F   0  0  0  0  0  0  0  0  0  0  0  0
   -1.0662   -1.7198    6.3415 F   0  0  0  0  0  0  0  0  0  0  0  0
   -1.9867   -2.4354    2.0304 C   0  0  0  0  0  0  0  0  0  0  0  0
   -2.9480   -2.8142    1.1282 C   0  0  0  0  0  0  0  0  0  0  0  0
   -2.7862   -3.4027   -0.0729 N   0  0  0  0  0  0  0  0  0  0  0  0
   -1.6484   -3.7585   -0.8011 C   0  0  0  0  0  0  0  0  0  0  0  0
   -1.9021   -4.3744   -1.9660 N   0  0  0  0  0  0  0  0  0  0  0  0
   -0.8400   -4.7362   -2.7016 C   0  0  0  0  0  0  0  0  0  0  0  0
    0.4561   -4.4896   -2.3271 C   0  0  0  0  0  0  0  0  0  0  0  0
    0.6365   -3.8251   -1.1327 C   0  0  0  0  0  0  0  0  0  0  0  0
   -0.4088   -3.4818   -0.3637 N   0  0  0  0  0  0  0  0  0  0  0  0
    1.9550   -3.5838   -0.7116 N   0  0  0  0  0  0  0  0  0  0  0  0
    2.1250   -2.7853    0.4968 C   0  0  0  0  0  0  0  0  0  0  0  0
    2.2791   -1.3176    0.1557 C   0  0  0  0  0  0  0  0  0  0  0  0
    3.5536   -0.7710   -0.0689 C   0  0  0  0  0  0  0  0  0  0  0  0
    3.6995    0.5762   -0.4062 C   0  0  0  0  0  0  0  0  0  0  0  0
    2.5661    1.3848   -0.5195 C   0  0  0  0  0  0  0  0  0  0  0  0
    1.2902    0.8534   -0.3211 C   0  0  0  0  0  0  0  0  0  0  0  0
    1.1511   -0.4938    0.0177 C   0  0  0  0  0  0  0  0  0  0  0  0
    2.7421    3.0825   -0.9805 S   0  0  0  0  0  0  0  0  0  0  0  0
    1.5255    3.5324   -1.6152 O   0  0  0  0  0  0  0  0  0  0  0  0
    4.0443    3.2834   -1.5722 O   0  0  0  0  0  0  0  0  0  0  0  0
    2.7942    3.8451    0.5149 N   0  0  0  0  0  0  0  0  0  0  0  0
   -6.2573   -2.8462    2.0340 H   0  0  0  0  0  0  0  0  0  0  0  0
   -5.6188   -3.4360    0.4962 H   0  0  0  0  0  0  0  0  0  0  0  0
   -5.8915   -1.6979    0.7298 H   0  0  0  0  0  0  0  0  0  0  0  0
   -1.2320   -0.6680    3.9308 H   0  0  0  0  0  0  0  0  0  0  0  0
   -2.8092   -0.6458    4.7308 H   0  0  0  0  0  0  0  0  0  0  0  0
   -0.9098   -2.5128    2.0116 H   0  0  0  0  0  0  0  0  0  0  0  0
   -3.5827   -3.6861   -0.6307 H   0  0  0  0  0  0  0  0  0  0  0  0
   -1.0680   -5.2496   -3.6308 H   0  0  0  0  0  0  0  0  0  0  0  0
    1.2879   -4.8086   -2.9394 H   0  0  0  0  0  0  0  0  0  0  0  0
    2.4979   -3.2044   -1.4819 H   0  0  0  0  0  0  0  0  0  0  0  0
    3.0452   -3.1235    0.9905 H   0  0  0  0  0  0  0  0  0  0  0  0
    1.3390   -2.9377    1.2451 H   0  0  0  0  0  0  0  0  0  0  0  0
    4.4410   -1.3957    0.0162 H   0  0  0  0  0  0  0  0  0  0  0  0
    4.6931    0.9835   -0.5805 H   0  0  0  0  0  0  0  0  0  0  0  0
    0.4038    1.4738   -0.4341 H   0  0  0  0  0  0  0  0  0  0  0  0
    0.1527   -0.9043    0.1598 H   0  0  0  0  0  0  0  0  0  0  0  0
    3.6968    4.3051    0.6357 H   0  0  0  0  0  0  0  0  0  0  0  0
    1.9964    4.4743    0.6080 H   0  0  0  0  0  0  0  0  0  0  0  0
  1  2  1  0
  2  3  2  0
  3  4  1  0
  4  5  1  0
  5  6  1  0
  6  7  1  0
  6  8  1  0
  6  9  1  0
  4 10  1  0
 10 11  2  0
 11 12  1  0
 12 13  1  0
 13 14  2  0
 14 15  1  0
 15 16  2  0
 16 17  1  0
 17 18  2  0
 17 19  1  0
 19 20  1  0
 20 21  1  0
 21 22  2  0
 22 23  1  0
 23 24  2  0
 24 25  1  0
 25 26  2  0
 24 27  1  0
 27 28  2  0
 27 29  2  0
 27 30  1  0
 11  2  1  0
 18 13  1  0
 26 21  1  0
  1 31  1  0
  1 32  1  0
  1 33  1  0
  5 34  1  0
  5 35  1  0
 10 36  1  0
 12 37  1  0
 15 38  1  0
 16 39  1  0
 19 40  1  0
 20 41  1  0
 20 42  1  0
 22 43  1  0
 23 44  1  0
 25 45  1  0
 26 46  1  0
 30 47  1  0
 30 48  1  0
M  END
>  <mol_id>  (43) 
Z3772051641

>  <drugclip_rank>  (43) 
44

>  <conformer>  (43) 
11

>  <align_rmsd>  (43) 
0.616

$$$$
Z8462111514
     RDKit          3D

 64 67  0  0  0  0  0  0  0  0999 V2000
   -0.1106   -4.4856   -1.0455 C   0  0  0  0  0  0  0  0  0  0  0  0
    0.8305   -3.8800    0.0107 C   0  0  0  0  0  0  0  0  0  0  0  0
    1.0545   -2.3662   -0.2181 C   0  0  0  0  0  0  0  0  0  0  0  0
    2.0809   -1.8144    0.7697 C   0  0  0  0  0  0  0  0  0  0  0  0
   -0.2750   -1.5786   -0.1099 C   0  0  0  0  0  0  0  0  0  0  0  0
   -1.3755   -2.2553   -0.8535 C   0  0  0  0  0  0  0  0  0  0  0  0
   -1.2896   -3.6073   -1.2726 C   0  0  0  0  0  0  0  0  0  0  0  0
   -2.6191   -1.8276   -1.2895 C   0  0  0  0  0  0  0  0  0  0  0  0
   -3.1445   -2.9060   -1.9608 N   0  0  0  0  0  0  0  0  0  0  0  0
   -2.3698   -4.0041   -1.9440 N   0  0  0  0  0  0  0  0  0  0  0  0
   -3.3613   -0.5963   -1.2031 C   0  0  0  0  0  0  0  0  0  0  0  0
   -4.3537   -0.3883   -1.8932 O   0  0  0  0  0  0  0  0  0  0  0  0
   -2.8944    0.3085   -0.2792 N   0  0  0  0  0  0  0  0  0  0  0  0
   -3.5789    1.5689    0.0086 C   0  0  0  0  0  0  0  0  0  0  0  0
   -4.2818    1.4566    1.3649 C   0  0  0  0  0  0  0  0  0  0  0  0
   -2.6370    2.7964   -0.0709 C   0  0  0  0  0  0  0  0  0  0  0  0
   -3.4130    3.9880    0.1619 O   0  0  0  0  0  0  0  0  0  0  0  0
   -1.9437    2.9504   -1.4329 C   0  0  0  0  0  0  0  0  0  0  0  0
   -0.7772    3.8830   -1.1269 C   0  0  0  0  0  0  0  0  0  0  0  0
   -0.4489    3.6258    0.2711 N   0  0  0  0  0  0  0  0  0  0  0  0
   -1.4464    2.7649    0.9006 C   0  0  0  0  0  0  0  0  0  0  0  0
    0.5046    4.2700    1.0373 C   0  0  0  0  0  0  0  0  0  0  0  0
    0.5964    4.1270    2.2541 O   0  0  0  0  0  0  0  0  0  0  0  0
    1.4240    5.2185    0.3706 C   0  0  0  0  0  0  0  0  0  0  0  0
    2.3200    4.7359   -0.5903 C   0  0  0  0  0  0  0  0  0  0  0  0
    3.1706    5.6336   -1.2355 C   0  0  0  0  0  0  0  0  0  0  0  0
    4.2979    5.0484   -2.4716 S   0  0  0  0  0  0  0  0  0  0  0  0
    4.2333    3.6067   -2.5066 O   0  0  0  0  0  0  0  0  0  0  0  0
    5.5364    5.7762   -2.3282 O   0  0  0  0  0  0  0  0  0  0  0  0
    3.5812    5.6183   -3.8835 N   0  0  0  0  0  0  0  0  0  0  0  0
    3.1443    6.9937   -0.9214 C   0  0  0  0  0  0  0  0  0  0  0  0
    2.2615    7.4588    0.0579 C   0  0  0  0  0  0  0  0  0  0  0  0
    1.4315    6.5735    0.7590 C   0  0  0  0  0  0  0  0  0  0  0  0
    0.4843    7.0976    1.6610 N   0  0  0  0  0  0  0  0  0  0  0  0
   -0.4279   -5.4847   -0.7270 H   0  0  0  0  0  0  0  0  0  0  0  0
    0.4333   -4.5969   -1.9909 H   0  0  0  0  0  0  0  0  0  0  0  0
    1.7864   -4.4170   -0.0112 H   0  0  0  0  0  0  0  0  0  0  0  0
    0.4012   -4.0344    1.0102 H   0  0  0  0  0  0  0  0  0  0  0  0
    1.4549   -2.2337   -1.2332 H   0  0  0  0  0  0  0  0  0  0  0  0
    3.0387   -2.3353    0.6659 H   0  0  0  0  0  0  0  0  0  0  0  0
    1.7424   -1.9345    1.8044 H   0  0  0  0  0  0  0  0  0  0  0  0
    2.2570   -0.7485    0.5904 H   0  0  0  0  0  0  0  0  0  0  0  0
   -0.1229   -0.5632   -0.4957 H   0  0  0  0  0  0  0  0  0  0  0  0
   -0.5691   -1.4914    0.9443 H   0  0  0  0  0  0  0  0  0  0  0  0
   -4.0405   -2.9435   -2.4371 H   0  0  0  0  0  0  0  0  0  0  0  0
   -2.2196   -0.0282    0.3907 H   0  0  0  0  0  0  0  0  0  0  0  0
   -4.3686    1.7171   -0.7392 H   0  0  0  0  0  0  0  0  0  0  0  0
   -3.5640    1.2858    2.1746 H   0  0  0  0  0  0  0  0  0  0  0  0
   -4.9811    0.6131    1.3675 H   0  0  0  0  0  0  0  0  0  0  0  0
   -4.8522    2.3610    1.5971 H   0  0  0  0  0  0  0  0  0  0  0  0
   -2.8005    4.6980    0.4319 H   0  0  0  0  0  0  0  0  0  0  0  0
   -2.5944    3.3731   -2.2053 H   0  0  0  0  0  0  0  0  0  0  0  0
   -1.5494    1.9926   -1.7919 H   0  0  0  0  0  0  0  0  0  0  0  0
    0.0799    3.6823   -1.7742 H   0  0  0  0  0  0  0  0  0  0  0  0
   -1.0613    4.9363   -1.2275 H   0  0  0  0  0  0  0  0  0  0  0  0
   -1.7004    3.1412    1.8959 H   0  0  0  0  0  0  0  0  0  0  0  0
   -0.9920    1.7735    0.9881 H   0  0  0  0  0  0  0  0  0  0  0  0
    2.3493    3.6742   -0.8244 H   0  0  0  0  0  0  0  0  0  0  0  0
    4.2102    6.2878   -4.3313 H   0  0  0  0  0  0  0  0  0  0  0  0
    2.6453    5.9977   -3.7501 H   0  0  0  0  0  0  0  0  0  0  0  0
    3.8073    7.6950   -1.4242 H   0  0  0  0  0  0  0  0  0  0  0  0
    2.2338    8.5228    0.2818 H   0  0  0  0  0  0  0  0  0  0  0  0
    0.2023    6.3981    2.3561 H   0  0  0  0  0  0  0  0  0  0  0  0
    0.7843    7.9546    2.1174 H   0  0  0  0  0  0  0  0  0  0  0  0
  1  2  1  0
  2  3  1  0
  3  4  1  0
  3  5  1  0
  5  6  1  0
  6  7  1  0
  6  8  2  0
  8  9  1  0
  9 10  1  0
  8 11  1  0
 11 12  2  0
 11 13  1  0
 13 14  1  0
 14 15  1  0
 14 16  1  0
 16 17  1  0
 16 18  1  0
 18 19  1  0
 19 20  1  0
 20 21  1  0
 20 22  1  0
 22 23  2  0
 22 24  1  0
 24 25  2  0
 25 26  1  0
 26 27  1  0
 27 28  2  0
 27 29  2  0
 27 30  1  0
 26 31  2  0
 31 32  1  0
 32 33  2  0
 33 34  1  0
  7  1  1  0
 10  7  2  0
 21 16  1  0
 33 24  1  0
  1 35  1  0
  1 36  1  0
  2 37  1  0
  2 38  1  0
  3 39  1  0
  4 40  1  0
  4 41  1  0
  4 42  1  0
  5 43  1  0
  5 44  1  0
  9 45  1  0
 13 46  1  0
 14 47  1  0
 15 48  1  0
 15 49  1  0
 15 50  1  0
 17 51  1  0
 18 52  1  0
 18 53  1  0
 19 54  1  0
 19 55  1  0
 21 56  1  0
 21 57  1  0
 25 58  1  0
 30 59  1  0
 30 60  1  0
 31 61  1  0
 32 62  1  0
 34 63  1  0
 34 64  1  0
M  END
>  <mol_id>  (44) 
Z8462111514

>  <drugclip_rank>  (44) 
45

>  <conformer>  (44) 
30

>  <align_rmsd>  (44) 
0.998

$$$$
Z9061997611
     RDKit          3D

 61 64  0  0  0  0  0  0  0  0999 V2000
   -5.9159   -0.3151    1.0015 C   0  0  0  0  0  0  0  0  0  0  0  0
   -6.8370    0.3965    0.3279 C   0  0  0  0  0  0  0  0  0  0  0  0
   -6.5266    1.6999   -0.2553 C   0  0  0  0  0  0  0  0  0  0  0  0
   -7.6194    2.4180   -0.9797 C   0  0  0  0  0  0  0  0  0  0  0  0
   -5.2773    2.1818   -0.1123 C   0  0  0  0  0  0  0  0  0  0  0  0
   -4.3228    1.4309    0.5744 N   0  0  0  0  0  0  0  0  0  0  0  0
   -4.5964    0.1900    1.1418 C   0  0  0  0  0  0  0  0  0  0  0  0
   -2.9887    1.6870    0.8043 C   0  0  0  0  0  0  0  0  0  0  0  0
   -2.5494    0.6131    1.5493 C   0  0  0  0  0  0  0  0  0  0  0  0
   -3.5387   -0.3156    1.7337 N   0  0  0  0  0  0  0  0  0  0  0  0
   -2.2805    2.8616    0.3888 C   0  0  0  0  0  0  0  0  0  0  0  0
   -2.5756    3.9735    0.8272 O   0  0  0  0  0  0  0  0  0  0  0  0
   -1.2287    2.7078   -0.5237 N   0  0  0  0  0  0  0  0  0  0  0  0
   -0.7724    1.4215   -1.0272 C   0  0  0  0  0  0  0  0  0  0  0  0
   -0.4113    3.8862   -0.8287 C   0  0  0  0  0  0  0  0  0  0  0  0
    0.7355    4.0167    0.1917 C   0  0  0  0  0  0  0  0  0  0  0  0
    0.2822    3.8001    1.5563 O   0  0  0  0  0  0  0  0  0  0  0  0
    2.0378    3.2615   -0.2005 C   0  0  0  0  0  0  0  0  0  0  0  0
    2.4870    4.5150   -0.7816 N   0  0  0  0  0  0  0  0  0  0  0  0
    1.5538    5.3245   -0.0231 C   0  0  0  0  0  0  0  0  0  0  0  0
    3.7071    4.7961   -1.3373 C   0  0  0  0  0  0  0  0  0  0  0  0
    4.4917    3.9148   -1.6768 O   0  0  0  0  0  0  0  0  0  0  0  0
    3.9974    6.2727   -1.5137 C   0  0  0  0  0  0  0  0  0  0  0  0
    5.3505    6.5065   -2.1808 C   0  0  0  0  0  0  0  0  0  0  0  0
    5.6518    7.9809   -2.3105 C   0  0  0  0  0  0  0  0  0  0  0  0
    5.3025    8.6756   -3.4786 C   0  0  0  0  0  0  0  0  0  0  0  0
    5.5504   10.0468   -3.5870 C   0  0  0  0  0  0  0  0  0  0  0  0
    6.1561   10.7212   -2.5209 C   0  0  0  0  0  0  0  0  0  0  0  0
    6.4957   10.0455   -1.3451 C   0  0  0  0  0  0  0  0  0  0  0  0
    6.2440    8.6765   -1.2440 C   0  0  0  0  0  0  0  0  0  0  0  0
    6.4836   12.4612   -2.6437 S   0  0  0  0  0  0  0  0  0  0  0  0
    5.6691   13.0103   -3.7054 O   0  0  0  0  0  0  0  0  0  0  0  0
    6.5006   13.0192   -1.3107 O   0  0  0  0  0  0  0  0  0  0  0  0
    8.0633   12.4596   -3.2292 N   0  0  0  0  0  0  0  0  0  0  0  0
   -6.1498   -1.2759    1.4429 H   0  0  0  0  0  0  0  0  0  0  0  0
   -7.8453    0.0104    0.2216 H   0  0  0  0  0  0  0  0  0  0  0  0
   -7.2742    3.3758   -1.3836 H   0  0  0  0  0  0  0  0  0  0  0  0
   -8.4588    2.6203   -0.3095 H   0  0  0  0  0  0  0  0  0  0  0  0
   -7.9831    1.8144   -1.8149 H   0  0  0  0  0  0  0  0  0  0  0  0
   -4.9584    3.1409   -0.5039 H   0  0  0  0  0  0  0  0  0  0  0  0
   -1.5578    0.4606    1.9565 H   0  0  0  0  0  0  0  0  0  0  0  0
   -0.0642    1.0052   -0.3210 H   0  0  0  0  0  0  0  0  0  0  0  0
   -0.2963    1.5543   -1.9935 H   0  0  0  0  0  0  0  0  0  0  0  0
   -1.6063    0.7270   -1.1620 H   0  0  0  0  0  0  0  0  0  0  0  0
   -1.0435    4.7801   -0.7845 H   0  0  0  0  0  0  0  0  0  0  0  0
   -0.0467    3.8128   -1.8581 H   0  0  0  0  0  0  0  0  0  0  0  0
   -0.5596    4.2972    1.6308 H   0  0  0  0  0  0  0  0  0  0  0  0
    1.9374    2.4545   -0.9289 H   0  0  0  0  0  0  0  0  0  0  0  0
    2.6602    2.9357    0.6386 H   0  0  0  0  0  0  0  0  0  0  0  0
    1.0617    6.1064   -0.6072 H   0  0  0  0  0  0  0  0  0  0  0  0
    1.9949    5.7540    0.8825 H   0  0  0  0  0  0  0  0  0  0  0  0
    3.9806    6.7462   -0.5254 H   0  0  0  0  0  0  0  0  0  0  0  0
    3.1976    6.7124   -2.1207 H   0  0  0  0  0  0  0  0  0  0  0  0
    6.1530    6.0200   -1.6075 H   0  0  0  0  0  0  0  0  0  0  0  0
    5.3677    6.0395   -3.1762 H   0  0  0  0  0  0  0  0  0  0  0  0
    4.8304    8.1490   -4.3092 H   0  0  0  0  0  0  0  0  0  0  0  0
    5.2651   10.5779   -4.4927 H   0  0  0  0  0  0  0  0  0  0  0  0
    6.9444   10.5785   -0.5064 H   0  0  0  0  0  0  0  0  0  0  0  0
    6.5069    8.1526   -0.3260 H   0  0  0  0  0  0  0  0  0  0  0  0
    8.5014   11.5392   -3.2081 H   0  0  0  0  0  0  0  0  0  0  0  0
    8.0702   12.8660   -4.1679 H   0  0  0  0  0  0  0  0  0  0  0  0
  1  2  2  0
  2  3  1  0
  3  4  1  0
  3  5  2  0
  5  6  1  0
  6  7  1  0
  6  8  1  0
  8  9  2  0
  9 10  1  0
  8 11  1  0
 11 12  2  0
 11 13  1  0
 13 14  1  0
 13 15  1  0
 15 16  1  0
 16 17  1  0
 16 18  1  0
 18 19  1  0
 19 20  1  0
 19 21  1  0
 21 22  2  0
 21 23  1  0
 23 24  1  0
 24 25  1  0
 25 26  2  0
 26 27  1  0
 27 28  2  0
 28 29  1  0
 29 30  2  0
 28 31  1  0
 31 32  2  0
 31 33  2  0
 31 34  1  0
  7  1  1  0
 10  7  2  0
 20 16  1  0
 30 25  1  0
  1 35  1  0
  2 36  1  0
  4 37  1  0
  4 38  1  0
  4 39  1  0
  5 40  1  0
  9 41  1  0
 14 42  1  0
 14 43  1  0
 14 44  1  0
 15 45  1  0
 15 46  1  0
 17 47  1  0
 18 48  1  0
 18 49  1  0
 20 50  1  0
 20 51  1  0
 23 52  1  0
 23 53  1  0
 24 54  1  0
 24 55  1  0
 26 56  1  0
 27 57  1  0
 29 58  1  0
 30 59  1  0
 34 60  1  0
 34 61  1  0
M  END
>  <mol_id>  (45) 
Z9061997611

>  <drugclip_rank>  (45) 
46

>  <conformer>  (45) 
10

>  <align_rmsd>  (45) 
0.808

$$$$
Z3220602606
     RDKit          3D

 56 59  0  0  0  0  0  0  0  0999 V2000
   -1.8531   10.5264    0.2420 C   0  0  0  0  0  0  0  0  0  0  0  0
   -2.7691   10.1632    1.3468 N   0  0  0  0  0  0  0  0  0  0  0  0
   -3.2069   11.3587    2.1025 C   0  0  0  0  0  0  0  0  0  0  0  0
   -4.0723    9.1441    0.9026 S   0  0  0  0  0  0  0  0  0  0  0  0
   -4.6907    9.7227   -0.2730 O   0  0  0  0  0  0  0  0  0  0  0  0
   -4.8485    8.8526    2.0891 O   0  0  0  0  0  0  0  0  0  0  0  0
   -3.2548    7.6423    0.4269 C   0  0  0  0  0  0  0  0  0  0  0  0
   -3.2881    7.2125   -0.8994 C   0  0  0  0  0  0  0  0  0  0  0  0
   -2.6327    6.0295   -1.2525 C   0  0  0  0  0  0  0  0  0  0  0  0
   -1.9499    5.2706   -0.2899 C   0  0  0  0  0  0  0  0  0  0  0  0
   -1.9414    5.7083    1.0374 C   0  0  0  0  0  0  0  0  0  0  0  0
   -2.5922    6.8924    1.3997 C   0  0  0  0  0  0  0  0  0  0  0  0
   -1.3145    4.0937   -0.7359 N   0  0  0  0  0  0  0  0  0  0  0  0
   -0.5313    3.2312    0.0054 C   0  0  0  0  0  0  0  0  0  0  0  0
   -0.2127    3.3444    1.1842 O   0  0  0  0  0  0  0  0  0  0  0  0
   -0.0514    2.0616   -0.7826 C   0  0  0  0  0  0  0  0  0  0  0  0
    0.8636    2.3033   -1.9212 C   0  0  0  0  0  0  0  0  0  0  0  0
    1.1997    3.4365   -2.2573 O   0  0  0  0  0  0  0  0  0  0  0  0
    1.2695    1.2011   -2.6194 N   0  0  0  0  0  0  0  0  0  0  0  0
    0.9068   -0.0777   -2.3590 N   0  0  0  0  0  0  0  0  0  0  0  0
    0.1049   -0.2752   -1.3581 C   0  0  0  0  0  0  0  0  0  0  0  0
   -0.2699   -1.6837   -1.0669 C   0  0  0  0  0  0  0  0  0  0  0  0
   -0.8576   -2.4441   -2.0843 C   0  0  0  0  0  0  0  0  0  0  0  0
   -1.1949   -3.7773   -1.8467 C   0  0  0  0  0  0  0  0  0  0  0  0
   -0.9343   -4.3515   -0.6010 C   0  0  0  0  0  0  0  0  0  0  0  0
   -0.3263   -3.5995    0.4058 C   0  0  0  0  0  0  0  0  0  0  0  0
    0.0158   -2.2661    0.1728 C   0  0  0  0  0  0  0  0  0  0  0  0
   -0.4715    0.8125   -0.4960 C   0  0  0  0  0  0  0  0  0  0  0  0
   -1.5198    0.5401    0.5081 C   0  0  0  0  0  0  0  0  0  0  0  0
   -1.2410    0.5708    1.8809 C   0  0  0  0  0  0  0  0  0  0  0  0
   -2.2482    0.3092    2.8125 C   0  0  0  0  0  0  0  0  0  0  0  0
   -3.5400    0.0140    2.3803 C   0  0  0  0  0  0  0  0  0  0  0  0
   -3.8284   -0.0174    1.0168 C   0  0  0  0  0  0  0  0  0  0  0  0
   -2.8241    0.2464    0.0835 C   0  0  0  0  0  0  0  0  0  0  0  0
   -0.9909   11.0705    0.6428 H   0  0  0  0  0  0  0  0  0  0  0  0
   -1.4596    9.6352   -0.2535 H   0  0  0  0  0  0  0  0  0  0  0  0
   -2.3534   11.1641   -0.4929 H   0  0  0  0  0  0  0  0  0  0  0  0
   -2.3360   11.9487    2.4060 H   0  0  0  0  0  0  0  0  0  0  0  0
   -3.8593   11.9916    1.4925 H   0  0  0  0  0  0  0  0  0  0  0  0
   -3.7283   11.0640    3.0177 H   0  0  0  0  0  0  0  0  0  0  0  0
   -3.8144    7.7857   -1.6592 H   0  0  0  0  0  0  0  0  0  0  0  0
   -2.6614    5.7116   -2.2921 H   0  0  0  0  0  0  0  0  0  0  0  0
   -1.4383    5.1486    1.8200 H   0  0  0  0  0  0  0  0  0  0  0  0
   -2.5766    7.2216    2.4366 H   0  0  0  0  0  0  0  0  0  0  0  0
   -1.3880    3.9044   -1.7286 H   0  0  0  0  0  0  0  0  0  0  0  0
    1.8998    1.3458   -3.4033 H   0  0  0  0  0  0  0  0  0  0  0  0
   -1.0474   -2.0039   -3.0605 H   0  0  0  0  0  0  0  0  0  0  0  0
   -1.6531   -4.3711   -2.6339 H   0  0  0  0  0  0  0  0  0  0  0  0
   -1.1944   -5.3919   -0.4172 H   0  0  0  0  0  0  0  0  0  0  0  0
   -0.1124   -4.0556    1.3705 H   0  0  0  0  0  0  0  0  0  0  0  0
    0.5123   -1.6993    0.9559 H   0  0  0  0  0  0  0  0  0  0  0  0
   -0.2423    0.8162    2.2382 H   0  0  0  0  0  0  0  0  0  0  0  0
   -2.0255    0.3465    3.8764 H   0  0  0  0  0  0  0  0  0  0  0  0
   -4.3242   -0.1844    3.1072 H   0  0  0  0  0  0  0  0  0  0  0  0
   -4.8376   -0.2446    0.6813 H   0  0  0  0  0  0  0  0  0  0  0  0
   -3.0707    0.2168   -0.9755 H   0  0  0  0  0  0  0  0  0  0  0  0
  1  2  1  0
  2  3  1  0
  2  4  1  0
  4  5  2  0
  4  6  2  0
  4  7  1  0
  7  8  2  0
  8  9  1  0
  9 10  2  0
 10 11  1  0
 11 12  2  0
 10 13  1  0
 13 14  1  0
 14 15  2  0
 14 16  1  0
 16 17  1  0
 17 18  2  0
 17 19  1  0
 19 20  1  0
 20 21  2  0
 21 22  1  0
 22 23  2  0
 23 24  1  0
 24 25  2  0
 25 26  1  0
 26 27  2  0
 21 28  1  0
 28 29  1  0
 29 30  2  0
 30 31  1  0
 31 32  2  0
 32 33  1  0
 33 34  2  0
 12  7  1  0
 28 16  2  0
 27 22  1  0
 34 29  1  0
  1 35  1  0
  1 36  1  0
  1 37  1  0
  3 38  1  0
  3 39  1  0
  3 40  1  0
  8 41  1  0
  9 42  1  0
 11 43  1  0
 12 44  1  0
 13 45  1  0
 19 46  1  0
 23 47  1  0
 24 48  1  0
 25 49  1  0
 26 50  1  0
 27 51  1  0
 30 52  1  0
 31 53  1  0
 32 54  1  0
 33 55  1  0
 34 56  1  0
M  END
>  <mol_id>  (46) 
Z3220602606

>  <drugclip_rank>  (46) 
47

>  <conformer>  (46) 
12

>  <align_rmsd>  (46) 
0.697

$$$$
MCULE-1747195129
     RDKit          3D

 51 53  0  0  0  0  0  0  0  0999 V2000
    0.9864   -0.0486   -0.5660 C   0  0  0  0  0  0  0  0  0  0  0  0
    0.8027    0.7012    0.5842 C   0  0  0  0  0  0  0  0  0  0  0  0
    1.5016    1.8176    0.9021 N   0  0  0  0  0  0  0  0  0  0  0  0
    2.4386    2.2114    0.0224 C   0  0  0  0  0  0  0  0  0  0  0  0
    2.7038    1.5653   -1.1192 N   0  0  0  0  0  0  0  0  0  0  0  0
    1.9818    0.4560   -1.3849 C   0  0  0  0  0  0  0  0  0  0  0  0
    3.1136    3.3714    0.3652 N   0  0  0  0  0  0  0  0  0  0  0  0
    4.1148    3.9658   -0.3565 C   0  0  0  0  0  0  0  0  0  0  0  0
    4.6140    3.5391   -1.3948 O   0  0  0  0  0  0  0  0  0  0  0  0
    4.6096    5.2959    0.2208 C   0  0  0  0  0  0  0  0  0  0  0  0
    5.1242    5.1476    1.6608 C   0  0  0  0  0  0  0  0  0  0  0  0
    4.2046    5.8048    2.6986 C   0  0  0  0  0  0  0  0  0  0  0  0
    2.8139    5.5206    2.3357 N   0  0  0  0  0  0  0  0  0  0  0  0
    1.9134    5.8027    3.4594 C   0  0  0  0  0  0  0  0  0  0  0  0
    2.4221    6.2919    1.1411 C   0  0  0  0  0  0  0  0  0  0  0  0
    3.5396    6.3853    0.0881 C   0  0  0  0  0  0  0  0  0  0  0  0
    0.2016   -1.2461   -0.8919 C   0  0  0  0  0  0  0  0  0  0  0  0
   -0.3312   -1.4303   -2.1811 C   0  0  0  0  0  0  0  0  0  0  0  0
   -1.0816   -2.5659   -2.4965 C   0  0  0  0  0  0  0  0  0  0  0  0
   -1.3107   -3.5317   -1.5257 C   0  0  0  0  0  0  0  0  0  0  0  0
   -2.0448   -4.6111   -1.8439 F   0  0  0  0  0  0  0  0  0  0  0  0
   -0.7968   -3.3921   -0.2361 C   0  0  0  0  0  0  0  0  0  0  0  0
   -0.0459   -2.2435    0.0716 C   0  0  0  0  0  0  0  0  0  0  0  0
   -1.0759   -4.4362    0.8158 C   0  0  0  0  0  0  0  0  0  0  0  0
   -2.3215   -4.0912    1.6261 C   0  0  0  0  0  0  0  0  0  0  0  0
   -2.6196   -5.1712    2.6309 C   0  0  0  0  0  0  0  0  0  0  0  0
   -1.8278   -5.9651    3.1137 O   0  0  0  0  0  0  0  0  0  0  0  0
   -3.9111   -5.1733    3.0149 O   0  0  0  0  0  0  0  0  0  0  0  0
    0.0435    0.4289    1.3182 H   0  0  0  0  0  0  0  0  0  0  0  0
    2.2532   -0.0312   -2.3211 H   0  0  0  0  0  0  0  0  0  0  0  0
    2.8087    3.7849    1.2413 H   0  0  0  0  0  0  0  0  0  0  0  0
    5.4642    5.5826   -0.4091 H   0  0  0  0  0  0  0  0  0  0  0  0
    6.1256    5.6047    1.7394 H   0  0  0  0  0  0  0  0  0  0  0  0
    5.2537    4.0841    1.9154 H   0  0  0  0  0  0  0  0  0  0  0  0
    4.4485    5.3851    3.6830 H   0  0  0  0  0  0  0  0  0  0  0  0
    4.3996    6.8843    2.7553 H   0  0  0  0  0  0  0  0  0  0  0  0
    0.8872    5.5076    3.2098 H   0  0  0  0  0  0  0  0  0  0  0  0
    2.2167    5.2159    4.3435 H   0  0  0  0  0  0  0  0  0  0  0  0
    1.9251    6.8620    3.7462 H   0  0  0  0  0  0  0  0  0  0  0  0
    1.5474    5.8121    0.6900 H   0  0  0  0  0  0  0  0  0  0  0  0
    2.1186    7.3134    1.4043 H   0  0  0  0  0  0  0  0  0  0  0  0
    4.0357    7.3616    0.1937 H   0  0  0  0  0  0  0  0  0  0  0  0
    3.0925    6.3680   -0.9139 H   0  0  0  0  0  0  0  0  0  0  0  0
   -0.1800   -0.6791   -2.9544 H   0  0  0  0  0  0  0  0  0  0  0  0
   -1.4954   -2.6984   -3.4915 H   0  0  0  0  0  0  0  0  0  0  0  0
    0.3645   -2.1395    1.0758 H   0  0  0  0  0  0  0  0  0  0  0  0
   -1.1884   -5.4180    0.3447 H   0  0  0  0  0  0  0  0  0  0  0  0
   -0.2059   -4.5292    1.4785 H   0  0  0  0  0  0  0  0  0  0  0  0
   -3.1790   -3.9898    0.9544 H   0  0  0  0  0  0  0  0  0  0  0  0
   -2.1880   -3.1471    2.1654 H   0  0  0  0  0  0  0  0  0  0  0  0
   -3.9645   -5.9064    3.6610 H   0  0  0  0  0  0  0  0  0  0  0  0
  1  2  2  0
  2  3  1  0
  3  4  2  0
  4  5  1  0
  5  6  2  0
  4  7  1  0
  7  8  1  0
  8  9  2  0
  8 10  1  0
 10 11  1  0
 11 12  1  0
 12 13  1  0
 13 14  1  0
 13 15  1  0
 15 16  1  0
  1 17  1  0
 17 18  2  0
 18 19  1  0
 19 20  2  0
 20 21  1  0
 20 22  1  0
 22 23  2  0
 22 24  1  0
 24 25  1  0
 25 26  1  0
 26 27  2  0
 26 28  1  0
  6  1  1  0
 16 10  1  0
 23 17  1  0
  2 29  1  0
  6 30  1  0
  7 31  1  0
 10 32  1  0
 11 33  1  0
 11 34  1  0
 12 35  1  0
 12 36  1  0
 14 37  1  0
 14 38  1  0
 14 39  1  0
 15 40  1  0
 15 41  1  0
 16 42  1  0
 16 43  1  0
 18 44  1  0
 19 45  1  0
 23 46  1  0
 24 47  1  0
 24 48  1  0
 25 49  1  0
 25 50  1  0
 28 51  1  0
M  END
>  <mol_id>  (47) 
MCULE-1747195129

>  <drugclip_rank>  (47) 
48

>  <conformer>  (47) 
5

>  <align_rmsd>  (47) 
0.672

$$$$
MCULE-3957554977
     RDKit          3D

 57 60  0  0  0  0  0  0  0  0999 V2000
   -0.8305   -1.6661   -0.7504 C   0  0  0  0  0  0  0  0  0  0  0  0
   -0.4968   -2.8767   -0.1319 C   0  0  0  0  0  0  0  0  0  0  0  0
   -0.8726   -4.0894   -0.7098 C   0  0  0  0  0  0  0  0  0  0  0  0
   -1.5865   -4.1001   -1.9078 C   0  0  0  0  0  0  0  0  0  0  0  0
   -1.9323   -2.8992   -2.5443 C   0  0  0  0  0  0  0  0  0  0  0  0
   -1.5531   -1.6844   -1.9526 C   0  0  0  0  0  0  0  0  0  0  0  0
   -2.7197   -2.9158   -3.8381 C   0  0  0  0  0  0  0  0  0  0  0  0
   -2.0721   -3.6888   -4.9024 N   0  0  0  0  0  0  0  0  0  0  0  0
   -0.8343   -3.0723   -5.3979 C   0  0  0  0  0  0  0  0  0  0  0  0
   -0.1175   -3.9456   -6.4652 C   0  0  0  0  0  0  0  0  0  0  0  0
   -1.0012   -4.8343   -7.2442 N   0  0  0  0  0  0  0  0  0  0  0  0
   -0.4107   -5.1888   -8.5278 C   0  0  0  0  0  0  0  0  0  0  0  0
   -2.3327   -4.2402   -7.3897 C   0  0  0  0  0  0  0  0  0  0  0  0
   -3.0035   -3.9369   -6.0218 C   0  0  0  0  0  0  0  0  0  0  0  0
   -0.4321   -0.3897   -0.1338 C   0  0  0  0  0  0  0  0  0  0  0  0
    0.4578    0.3965   -0.7734 C   0  0  0  0  0  0  0  0  0  0  0  0
    0.8567    1.6052   -0.2085 N   0  0  0  0  0  0  0  0  0  0  0  0
    0.3743    2.0598    1.0188 C   0  0  0  0  0  0  0  0  0  0  0  0
    0.9142    3.2216    1.3092 N   0  0  0  0  0  0  0  0  0  0  0  0
    1.7343    3.4550    0.2439 C   0  0  0  0  0  0  0  0  0  0  0  0
    1.7231    2.5179   -0.6991 N   0  0  0  0  0  0  0  0  0  0  0  0
    2.4539    4.6171    0.2565 N   0  0  0  0  0  0  0  0  0  0  0  0
    3.3771    4.9860   -0.6907 C   0  0  0  0  0  0  0  0  0  0  0  0
    3.7306    4.3382   -1.6724 O   0  0  0  0  0  0  0  0  0  0  0  0
    3.9875    6.3295   -0.4418 C   0  0  0  0  0  0  0  0  0  0  0  0
    5.4275    6.1433    0.5631 S   0  0  0  0  0  0  0  0  0  0  0  0
    5.0020    5.5745    1.8290 O   0  0  0  0  0  0  0  0  0  0  0  0
    6.1262    7.4157    0.5404 O   0  0  0  0  0  0  0  0  0  0  0  0
    6.4503    4.9534   -0.2782 C   0  0  0  0  0  0  0  0  0  0  0  0
   -0.5629    1.2418    1.7046 C   0  0  0  0  0  0  0  0  0  0  0  0
   -0.9486    0.0730    1.1574 C   0  0  0  0  0  0  0  0  0  0  0  0
    0.0664   -2.8853    0.7985 H   0  0  0  0  0  0  0  0  0  0  0  0
   -0.6050   -5.0280   -0.2314 H   0  0  0  0  0  0  0  0  0  0  0  0
   -1.8670   -5.0508   -2.3587 H   0  0  0  0  0  0  0  0  0  0  0  0
   -1.8232   -0.7460   -2.4326 H   0  0  0  0  0  0  0  0  0  0  0  0
   -3.6965   -3.3584   -3.5994 H   0  0  0  0  0  0  0  0  0  0  0  0
   -2.9205   -1.8905   -4.1763 H   0  0  0  0  0  0  0  0  0  0  0  0
   -0.1235   -2.8990   -4.5818 H   0  0  0  0  0  0  0  0  0  0  0  0
   -1.0626   -2.0917   -5.8381 H   0  0  0  0  0  0  0  0  0  0  0  0
    0.6219   -4.5793   -5.9604 H   0  0  0  0  0  0  0  0  0  0  0  0
    0.4376   -3.2652   -7.1244 H   0  0  0  0  0  0  0  0  0  0  0  0
   -0.2781   -4.3162   -9.1774 H   0  0  0  0  0  0  0  0  0  0  0  0
    0.5658   -5.6643   -8.3841 H   0  0  0  0  0  0  0  0  0  0  0  0
   -1.0412   -5.9146   -9.0532 H   0  0  0  0  0  0  0  0  0  0  0  0
   -2.2609   -3.3060   -7.9638 H   0  0  0  0  0  0  0  0  0  0  0  0
   -2.9911   -4.9139   -7.9517 H   0  0  0  0  0  0  0  0  0  0  0  0
   -3.6754   -3.0810   -6.1708 H   0  0  0  0  0  0  0  0  0  0  0  0
   -3.6299   -4.7932   -5.7424 H   0  0  0  0  0  0  0  0  0  0  0  0
    0.9118    0.1547   -1.7263 H   0  0  0  0  0  0  0  0  0  0  0  0
    2.3230    5.1516    1.1054 H   0  0  0  0  0  0  0  0  0  0  0  0
    4.2765    6.7917   -1.3896 H   0  0  0  0  0  0  0  0  0  0  0  0
    3.2918    6.9982    0.0729 H   0  0  0  0  0  0  0  0  0  0  0  0
    5.9808    3.9698   -0.2281 H   0  0  0  0  0  0  0  0  0  0  0  0
    7.4166    4.9233    0.2307 H   0  0  0  0  0  0  0  0  0  0  0  0
    6.5864    5.2750   -1.3125 H   0  0  0  0  0  0  0  0  0  0  0  0
   -0.9513    1.5783    2.6592 H   0  0  0  0  0  0  0  0  0  0  0  0
   -1.6692   -0.5601    1.6693 H   0  0  0  0  0  0  0  0  0  0  0  0
  1  2  2  0
  2  3  1  0
  3  4  2  0
  4  5  1  0
  5  6  2  0
  5  7  1  0
  7  8  1  0
  8  9  1  0
  9 10  1  0
 10 11  1  0
 11 12  1  0
 11 13  1  0
 13 14  1  0
  1 15  1  0
 15 16  2  0
 16 17  1  0
 17 18  1  0
 18 19  2  0
 19 20  1  0
 20 21  2  0
 20 22  1  0
 22 23  1  0
 23 24  2  0
 23 25  1  0
 25 26  1  0
 26 27  2  0
 26 28  2  0
 26 29  1  0
 18 30  1  0
 30 31  2  0
  6  1  1  0
 14  8  1  0
 31 15  1  0
 21 17  1  0
  2 32  1  0
  3 33  1  0
  4 34  1  0
  6 35  1  0
  7 36  1  0
  7 37  1  0
  9 38  1  0
  9 39  1  0
 10 40  1  0
 10 41  1  0
 12 42  1  0
 12 43  1  0
 12 44  1  0
 13 45  1  0
 13 46  1  0
 14 47  1  0
 14 48  1  0
 16 49  1  0
 22 50  1  0
 25 51  1  0
 25 52  1  0
 29 53  1  0
 29 54  1  0
 29 55  1  0
 30 56  1  0
 31 57  1  0
M  END
>  <mol_id>  (48) 
MCULE-3957554977

>  <drugclip_rank>  (48) 
49

>  <conformer>  (48) 
31

>  <align_rmsd>  (48) 
1.3

$$$$
MCULE-9139726948
     RDKit          3D

 56 59  0  0  0  0  0  0  0  0999 V2000
   -1.4160    2.0289    0.5928 C   0  0  0  0  0  0  0  0  0  0  0  0
   -1.6820    2.1038    1.9724 C   0  0  0  0  0  0  0  0  0  0  0  0
   -2.6458    1.2927    2.5769 C   0  0  0  0  0  0  0  0  0  0  0  0
   -3.3665    0.3777    1.8141 C   0  0  0  0  0  0  0  0  0  0  0  0
   -3.1239    0.2606    0.4416 C   0  0  0  0  0  0  0  0  0  0  0  0
   -2.1546    1.0908   -0.1536 C   0  0  0  0  0  0  0  0  0  0  0  0
   -3.9055   -0.7307   -0.3971 C   0  0  0  0  0  0  0  0  0  0  0  0
   -3.0446   -1.6415   -1.1693 N   0  0  0  0  0  0  0  0  0  0  0  0
   -3.8552   -2.4153   -2.1346 C   0  0  0  0  0  0  0  0  0  0  0  0
   -2.9931   -3.4240   -2.9094 C   0  0  0  0  0  0  0  0  0  0  0  0
   -2.3319   -4.3297   -2.0167 O   0  0  0  0  0  0  0  0  0  0  0  0
   -1.5020   -3.5979   -1.1048 C   0  0  0  0  0  0  0  0  0  0  0  0
   -2.3279   -2.5915   -0.2874 C   0  0  0  0  0  0  0  0  0  0  0  0
   -0.3955    2.8982   -0.0263 C   0  0  0  0  0  0  0  0  0  0  0  0
    0.6362    3.2836    0.7768 N   0  0  0  0  0  0  0  0  0  0  0  0
    1.5872    4.0741    0.2288 C   0  0  0  0  0  0  0  0  0  0  0  0
    1.5090    4.4855   -1.0966 C   0  0  0  0  0  0  0  0  0  0  0  0
    0.4880    4.1268   -1.9139 N   0  0  0  0  0  0  0  0  0  0  0  0
   -0.4523    3.3314   -1.3496 C   0  0  0  0  0  0  0  0  0  0  0  0
    2.6070    4.4096    1.1231 N   0  0  0  0  0  0  0  0  0  0  0  0
    3.7182    5.1779    0.8781 C   0  0  0  0  0  0  0  0  0  0  0  0
    3.9877    5.7153   -0.1892 O   0  0  0  0  0  0  0  0  0  0  0  0
    4.6091    5.3546    2.1127 C   0  0  0  0  0  0  0  0  0  0  0  0
    3.9299    6.2514    3.1621 C   0  0  0  0  0  0  0  0  0  0  0  0
    3.8622    7.7198    2.7617 C   0  0  0  0  0  0  0  0  0  0  0  0
    5.4856    8.3988    2.5071 S   0  0  0  0  0  0  0  0  0  0  0  0
    5.3359    9.6993    1.8861 O   0  0  0  0  0  0  0  0  0  0  0  0
    6.2349    8.2433    3.7393 O   0  0  0  0  0  0  0  0  0  0  0  0
    6.1547    7.2767    1.3042 C   0  0  0  0  0  0  0  0  0  0  0  0
    6.0323    5.8236    1.7517 C   0  0  0  0  0  0  0  0  0  0  0  0
   -1.1332    2.8107    2.5932 H   0  0  0  0  0  0  0  0  0  0  0  0
   -2.8312    1.3771    3.6448 H   0  0  0  0  0  0  0  0  0  0  0  0
   -4.1126   -0.2473    2.2995 H   0  0  0  0  0  0  0  0  0  0  0  0
   -1.9681    0.9649   -1.2196 H   0  0  0  0  0  0  0  0  0  0  0  0
   -4.5223   -0.1344   -1.0831 H   0  0  0  0  0  0  0  0  0  0  0  0
   -4.6040   -1.2982    0.2322 H   0  0  0  0  0  0  0  0  0  0  0  0
   -4.3297   -1.7361   -2.8522 H   0  0  0  0  0  0  0  0  0  0  0  0
   -4.6488   -2.9592   -1.6056 H   0  0  0  0  0  0  0  0  0  0  0  0
   -2.2454   -2.9155   -3.5301 H   0  0  0  0  0  0  0  0  0  0  0  0
   -3.6273   -4.0194   -3.5741 H   0  0  0  0  0  0  0  0  0  0  0  0
   -1.0314   -4.3227   -0.4326 H   0  0  0  0  0  0  0  0  0  0  0  0
   -0.7033   -3.0961   -1.6647 H   0  0  0  0  0  0  0  0  0  0  0  0
   -3.0484   -3.1439    0.3303 H   0  0  0  0  0  0  0  0  0  0  0  0
   -1.6465   -2.0566    0.3832 H   0  0  0  0  0  0  0  0  0  0  0  0
    2.2527    5.1178   -1.5651 H   0  0  0  0  0  0  0  0  0  0  0  0
   -1.2715    3.0643   -2.0083 H   0  0  0  0  0  0  0  0  0  0  0  0
    2.4730    3.9802    2.0295 H   0  0  0  0  0  0  0  0  0  0  0  0
    4.7156    4.3517    2.5507 H   0  0  0  0  0  0  0  0  0  0  0  0
    2.9115    5.8995    3.3640 H   0  0  0  0  0  0  0  0  0  0  0  0
    4.4799    6.1591    4.1072 H   0  0  0  0  0  0  0  0  0  0  0  0
    3.2927    7.8616    1.8383 H   0  0  0  0  0  0  0  0  0  0  0  0
    3.3887    8.3116    3.5514 H   0  0  0  0  0  0  0  0  0  0  0  0
    7.2072    7.5452    1.1672 H   0  0  0  0  0  0  0  0  0  0  0  0
    5.6369    7.4636    0.3603 H   0  0  0  0  0  0  0  0  0  0  0  0
    6.4411    5.1799    0.9629 H   0  0  0  0  0  0  0  0  0  0  0  0
    6.6713    5.6753    2.6322 H   0  0  0  0  0  0  0  0  0  0  0  0
  1  2  2  0
  2  3  1  0
  3  4  2  0
  4  5  1  0
  5  6  2  0
  5  7  1  0
  7  8  1  0
  8  9  1  0
  9 10  1  0
 10 11  1  0
 11 12  1  0
 12 13  1  0
  1 14  1  0
 14 15  2  0
 15 16  1  0
 16 17  2  0
 17 18  1  0
 18 19  2  0
 16 20  1  0
 20 21  1  0
 21 22  2  0
 21 23  1  0
 23 24  1  0
 24 25  1  0
 25 26  1  0
 26 27  2  0
 26 28  2  0
 26 29  1  0
 29 30  1  0
  6  1  1  0
 13  8  1  0
 19 14  1  0
 30 23  1  0
  2 31  1  0
  3 32  1  0
  4 33  1  0
  6 34  1  0
  7 35  1  0
  7 36  1  0
  9 37  1  0
  9 38  1  0
 10 39  1  0
 10 40  1  0
 12 41  1  0
 12 42  1  0
 13 43  1  0
 13 44  1  0
 17 45  1  0
 19 46  1  0
 20 47  1  0
 23 48  1  0
 24 49  1  0
 24 50  1  0
 25 51  1  0
 25 52  1  0
 29 53  1  0
 29 54  1  0
 30 55  1  0
 30 56  1  0
M  END
>  <mol_id>  (49) 
MCULE-9139726948

>  <drugclip_rank>  (49) 
50

>  <conformer>  (49) 
0

>  <align_rmsd>  (49) 
0.921

$$$$
