Z8462111514
     RDKit          3D

 34 37  0  0  0  0  0  0  0  0999 V2000
   -0.1106   -4.4856   -1.0455 C   0  0  0  0  0  0  0  0  0  0  0  0
    0.8305   -3.8800    0.0107 C   0  0  0  0  0  0  0  0  0  0  0  0
    1.0545   -2.3662   -0.2181 C   0  0  2  0  0  0  0  0  0  0  0  0
    2.0809   -1.8144    0.7697 C   0  0  0  0  0  0  0  0  0  0  0  0
   -0.2750   -1.5786   -0.1099 C   0  0  0  0  0  0  0  0  0  0  0  0
   -1.3755   -2.2553   -0.8535 C   0  0  0  0  0  0  0  0  0  0  0  0
   -1.2896   -3.6073   -1.2726 C   0  0  0  0  0  0  0  0  0  0  0  0
   -2.6191   -1.8276   -1.2895 C   0  0  0  0  0  0  0  0  0  0  0  0
   -3.1445   -2.9060   -1.9608 N   0  0  0  0  0  0  0  0  0  0  0  0
   -2.3698   -4.0041   -1.9440 N   0  0  0  0  0  0  0  0  0  0  0  0
   -3.3613   -0.5963   -1.2031 C   0  0  0  0  0  0  0  0  0  0  0  0
   -4.3537   -0.3883   -1.8932 O   0  0  0  0  0  0  0  0  0  0  0  0
   -2.8944    0.3085   -0.2792 N   0  0  0  0  0  0  0  0  0  0  0  0
   -3.5789    1.5689    0.0086 C   0  0  1  0  0  0  0  0  0  0  0  0
   -4.2818    1.4566    1.3649 C   0  0  0  0  0  0  0  0  0  0  0  0
   -2.6370    2.7964   -0.0709 C   0  0  2  0  0  0  0  0  0  0  0  0
   -3.4130    3.9880    0.1619 O   0  0  0  0  0  0  0  0  0  0  0  0
   -1.9437    2.9504   -1.4329 C   0  0  0  0  0  0  0  0  0  0  0  0
   -0.7772    3.8830   -1.1269 C   0  0  0  0  0  0  0  0  0  0  0  0
   -0.4489    3.6258    0.2711 N   0  0  0  0  0  0  0  0  0  0  0  0
   -1.4464    2.7649    0.9006 C   0  0  0  0  0  0  0  0  0  0  0  0
    0.5046    4.2700    1.0373 C   0  0  0  0  0  0  0  0  0  0  0  0
    0.5964    4.1270    2.2541 O   0  0  0  0  0  0  0  0  0  0  0  0
    1.4240    5.2185    0.3706 C   0  0  0  0  0  0  0  0  0  0  0  0
    2.3200    4.7359   -0.5903 C   0  0  0  0  0  0  0  0  0  0  0  0
    3.1706    5.6336   -1.2355 C   0  0  0  0  0  0  0  0  0  0  0  0
    4.2979    5.0484   -2.4716 S   0  0  0  0  0  0  0  0  0  0  0  0
    4.2333    3.6067   -2.5066 O   0  0  0  0  0  0  0  0  0  0  0  0
    5.5364    5.7762   -2.3282 O   0  0  0  0  0  0  0  0  0  0  0  0
    3.5812    5.6183   -3.8835 N   0  0  0  0  0  0  0  0  0  0  0  0
    3.1443    6.9937   -0.9214 C   0  0  0  0  0  0  0  0  0  0  0  0
    2.2615    7.4588    0.0579 C   0  0  0  0  0  0  0  0  0  0  0  0
    1.4315    6.5735    0.7590 C   0  0  0  0  0  0  0  0  0  0  0  0
    0.4843    7.0976    1.6610 N   0  0  0  0  0  0  0  0  0  0  0  0
  1  2  1  0
  2  3  1  0
  3  4  1  1
  3  5  1  0
  5  6  1  0
  6  7  1  0
  6  8  2  0
  8  9  1  0
  9 10  1  0
  8 11  1  0
 11 12  2  0
 11 13  1  0
 13 14  1  0
 14 15  1  1
 14 16  1  0
 16 17  1  1
 16 18  1  0
 18 19  1  0
 19 20  1  0
 20 21  1  0
 20 22  1  0
 22 23  2  0
 22 24  1  0
 24 25  2  0
 25 26  1  0
 26 27  1  0
 27 28  2  0
 27 29  2  0
 27 30  1  0
 26 31  2  0
 31 32  1  0
 32 33  2  0
 33 34  1  0
  7  1  1  0
 10  7  2  0
 21 16  1  0
 33 24  1  0
M  END
>  <mol_id>  (1) 
Z8462111514

>  <drugclip_rank>  (1) 
45

>  <conformer>  (1) 
30

>  <align_rmsd>  (1) 
0.998

$$$$
