7A5V_HSM_A5408
     RDKit          3D

  8  8  0  0  0  0  0  0  0  0999 V2000
  189.5490  224.8460  244.2010 N   0  0  0  0  0  0  0  0  0  0  0  0
  188.3780  224.1140  243.7520 C   0  0  0  0  0  0  0  0  0  0  0  0
  188.7330  222.8010  243.1700 C   0  0  0  0  0  0  0  0  0  0  0  0
  187.6030  222.1680  242.4190 C   0  0  0  0  0  0  0  0  0  0  0  0
  186.7810  221.2490  243.0300 N   0  0  0  0  0  0  0  0  0  0  0  0
  187.3890  222.1290  241.0830 C   0  0  0  0  0  0  0  0  0  0  0  0
  186.0290  220.7560  242.0710 C   0  0  0  0  0  0  0  0  0  0  0  0
  186.3940  221.2200  240.8820 N   0  0  0  0  0  0  0  0  0  0  0  0
  2  1  1  0
  3  2  1  0
  4  3  1  0
  5  4  1  0
  6  4  2  0
  7  5  2  0
  8  7  1  0
  8  6  1  0
M  END
>  <_TriposChargeType>  (1) 
GASTEIGER

$$$$
