@<TRIPOS>MOLECULE
1UV6_CCE_J1206
 10 9 0 0 0
SMALL
GASTEIGER

@<TRIPOS>ATOM
      1 N         167.3880  122.8370  185.5260 N.4     1  UNL1        0.3135
      2 C         168.1790  122.2800  186.6460 C.3     1  UNL1        0.1576
      3 C         169.6700  122.6430  186.6580 C.3     1  UNL1        0.2706
      4 O         170.2980  122.0140  187.7800 O.3     1  UNL1       -0.4259
      5 C         171.1730  122.7380  188.6910 C.2     1  UNL1        0.4413
      6 O         171.9300  122.0460  189.3530 O.2     1  UNL1       -0.2228
      7 C         167.6370  124.2860  185.3690 C.3     1  UNL1        0.1711
      8 C         167.6940  122.0980  184.2770 C.3     1  UNL1        0.1711
      9 C         165.9600  122.6620  185.8540 C.3     1  UNL1        0.1711
     10 N         171.1360  124.0750  188.7600 N.am    1  UNL1       -0.0475
@<TRIPOS>UNITY_ATOM_ATTR
1 1
charge 1
@<TRIPOS>BOND
     1     2     1    1
     2     3     2    1
     3     4     3    1
     4     5     4    1
     5     6     5    2
     6     1     7    1
     7     8     1    1
     8     9     1    1
     9    10     5   am
