@<TRIPOS>MOLECULE
1UW6_NCT_D1208
 12 13 0 0 0
SMALL
GASTEIGER

@<TRIPOS>ATOM
      1 N         171.3420  124.1840  188.5400 N.ar    1  UNL1       -0.2426
      2 C         170.4460  124.0930  187.5230 C.ar    1  UNL1        0.0959
      3 C         169.9180  122.8480  187.1330 C.ar    1  UNL1        0.0114
      4 C         170.2940  121.7210  187.8470 C.ar    1  UNL1        0.0002
      5 C         171.1910  121.8530  188.8980 C.ar    1  UNL1        0.0204
      6 C         171.7040  123.1010  189.2420 C.ar    1  UNL1        0.0989
      7 N         167.6080  123.1760  186.4590 N.3     1  UNL1       -0.2691
      8 C         168.9260  122.6860  186.0320 C.3     1  UNL1        0.0817
      9 C         169.2500  123.4110  184.7430 C.3     1  UNL1        0.0220
     10 C         167.9520  124.0080  184.2500 C.3     1  UNL1        0.0191
     11 C         166.9580  123.9380  185.3930 C.3     1  UNL1        0.0724
     12 C         166.7590  122.0080  186.7260 C.3     1  UNL1        0.0899
@<TRIPOS>BOND
     1     2     1   ar
     2     3     2   ar
     3     4     3   ar
     4     5     4   ar
     5     6     5   ar
     6     6     1   ar
     7     8     7    1
     8     8     3    1
     9     9     8    1
    10    10     9    1
    11    11    10    1
    12    11     7    1
    13    12     7    1
