@<TRIPOS>MOLECULE
2W8F_BS1_F1206
 26 30 0 0 0
SMALL
GASTEIGER

@<TRIPOS>ATOM
      1 C         168.3970  124.8230  183.2350 C.3     1  UNL1        0.1702
      2 N         166.9460  124.5550  183.3460 N.4     1  UNL1        0.2980
      3 C         166.2390  125.8260  183.1670 C.3     1  UNL1        0.1702
      4 C         166.5460  123.9450  184.6250 C.3     1  UNL1        0.0613
      5 C         165.1000  123.5070  184.3830 C.3     1  UNL1        0.0610
      6 C         165.0280  123.2760  182.8720 C.3     1  UNL1        0.0610
      7 C         166.4240  123.6120  182.3540 C.3     1  UNL1        0.0613
      8 C         167.3890  122.7050  184.9520 C.3     1  UNL1        0.0848
      9 C         167.6520  121.7580  183.7480 C.3     1  UNL1        0.1274
     10 C         167.2510  122.3270  182.3640 C.3     1  UNL1        0.0848
     11 O         169.0240  121.3130  183.7820 O.3     1  UNL1       -0.3495
     12 C         169.2870  120.1120  183.0260 C.3     1  UNL1        0.1590
     13 C         169.9800  120.4670  181.7440 C.ar    1  UNL1        0.0048
     14 C         169.1250  120.6960  180.6510 C.ar    1  UNL1       -0.0019
     15 C         169.6040  121.0560  179.3890 C.ar    1  UNL1       -0.0003
     16 C         170.9780  121.1940  179.1980 C.ar    1  UNL1       -0.0003
     17 C         171.8430  120.9750  180.2740 C.ar    1  UNL1       -0.0045
     18 C         171.3740  120.6190  181.5470 C.ar    1  UNL1       -0.0232
     19 C         172.4680  120.4150  182.5880 C.3     1  UNL1        0.0308
     20 C         172.0030  120.5730  184.0290 C.3     1  UNL1        0.0308
     21 C         171.2590  119.3190  184.3900 C.ar    1  UNL1       -0.0232
     22 C         171.8920  118.3770  185.2070 C.ar    1  UNL1       -0.0045
     23 C         171.2210  117.2050  185.5480 C.ar    1  UNL1       -0.0003
     24 C         169.9290  116.9980  185.0540 C.ar    1  UNL1       -0.0003
     25 C         169.3020  117.9380  184.2290 C.ar    1  UNL1       -0.0019
     26 C         169.9750  119.1080  183.8880 C.ar    1  UNL1        0.0048
@<TRIPOS>UNITY_ATOM_ATTR
2 1
charge 1
@<TRIPOS>BOND
     1     2     1    1
     2     3     2    1
     3     4     2    1
     4     4     5    1
     5     6     5    1
     6     7     6    1
     7     7     2    1
     8     8     4    1
     9     9     8    1
    10    10     9    1
    11    10     7    1
    12     9    11    1
    13    12    11    1
    14    13    12    1
    15    14    13   ar
    16    15    14   ar
    17    16    15   ar
    18    17    16   ar
    19    18    17   ar
    20    18    13   ar
    21    19    18    1
    22    20    19    1
    23    21    20    1
    24    22    21   ar
    25    23    22   ar
    26    24    23   ar
    27    25    24   ar
    28    26    25   ar
    29    26    21   ar
    30    26    12    1
