@<TRIPOS>MOLECULE
2W8G_BS2_A1206
 31 36 0 0 0
SMALL
GASTEIGER

@<TRIPOS>ATOM
      1 C         170.5850  120.5690  186.7760 C.ar    1  UNL1        0.0048
      2 C         170.1160  120.7590  188.0570 C.ar    1  UNL1       -0.0019
      3 C         170.9800  121.2050  189.0350 C.ar    1  UNL1       -0.0003
      4 C         172.3080  121.4540  188.7390 C.ar    1  UNL1       -0.0003
      5 C         172.7870  121.2470  187.4590 C.ar    1  UNL1       -0.0045
      6 C         171.8950  120.8360  186.4800 C.ar    1  UNL1       -0.0232
      7 C         172.5080  120.6180  185.1050 C.3     1  UNL1        0.0308
      8 C         172.7000  119.0930  185.0150 C.3     1  UNL1        0.0308
      9 C         171.3690  118.4290  184.6110 C.ar    1  UNL1       -0.0232
     10 C         171.6470  117.3050  183.8140 C.ar    1  UNL1       -0.0045
     11 C         170.5970  116.5460  183.3050 C.ar    1  UNL1       -0.0003
     12 C         169.2880  116.9250  183.6130 C.ar    1  UNL1       -0.0003
     13 C         169.0150  118.0590  184.4010 C.ar    1  UNL1       -0.0019
     14 C         170.0510  118.8420  184.9110 C.ar    1  UNL1        0.0048
     15 C         169.5090  120.0590  185.7870 C.3     1  UNL1        0.1590
     16 O         168.8670  121.2280  185.1360 O.3     1  UNL1       -0.3495
     17 C         168.4890  122.3630  185.9940 C.3     1  UNL1        0.1275
     18 C         167.0650  122.2430  186.5610 C.3     1  UNL1        0.0864
     19 C         168.5550  123.6720  185.2030 C.3     1  UNL1        0.0864
     20 C         167.4360  123.6780  184.1410 C.3     1  UNL1        0.0897
     21 C         167.4180  122.3140  183.4070 C.3     1  UNL1        0.0627
     22 C         166.4740  121.4490  184.2900 C.3     1  UNL1        0.0627
     23 C         166.0400  122.3700  185.4290 C.3     1  UNL1        0.0897
     24 N         166.1050  123.7050  184.7910 N.4     1  UNL1        0.3722
     25 C         164.9980  123.7170  183.8090 C.3     1  UNL1        0.1656
     26 C         165.1660  124.5990  182.5630 C.ar    1  UNL1        0.0344
     27 C         165.8120  125.8280  182.6140 C.ar    1  UNL1        0.0014
     28 C         165.9240  126.6210  181.4770 C.ar    1  UNL1       -0.0001
     29 C         165.3700  126.1860  180.2930 C.ar    1  UNL1       -0.0000
     30 C         164.7050  124.9780  180.2360 C.ar    1  UNL1       -0.0001
     31 C         164.6010  124.1770  181.3620 C.ar    1  UNL1        0.0014
@<TRIPOS>UNITY_ATOM_ATTR
24 1
charge 1
@<TRIPOS>BOND
     1     2     1   ar
     2     3     2   ar
     3     4     3   ar
     4     5     4   ar
     5     6     5   ar
     6     6     1   ar
     7     7     6    1
     8     8     7    1
     9     9     8    1
    10    10     9   ar
    11    11    10   ar
    12    12    11   ar
    13    13    12   ar
    14    14    13   ar
    15    14     9   ar
    16    15    14    1
    17    15     1    1
    18    15    16    1
    19    17    16    1
    20    18    17    1
    21    19    17    1
    22    20    19    1
    23    21    20    1
    24    22    21    1
    25    23    22    1
    26    23    18    1
    27    24    20    1
    28    24    23    1
    29    25    24    1
    30    26    25    1
    31    27    26   ar
    32    28    27   ar
    33    29    28   ar
    34    30    29   ar
    35    31    30   ar
    36    31    26   ar
