@<TRIPOS>MOLECULE
2XNT_VU2_B301
 18 19 0 0 0
SMALL
GASTEIGER

@<TRIPOS>ATOM
      1 C         165.1520  125.1320  181.6270 C.3     1  UNL1        0.1433
      2 C         169.7130  124.8440  183.7700 C.ar    1  UNL1       -0.0000
      3 C         169.4200  124.4370  182.4660 C.ar    1  UNL1       -0.0002
      4 C         168.6860  125.0090  184.7010 C.ar    1  UNL1       -0.0002
      5 C         165.5990  121.7610  183.1500 C.3     1  UNL1        0.1690
      6 C         167.0290  121.3020  183.3260 C.ar    1  UNL1        0.0073
      7 C         167.7470  120.8050  182.2360 C.ar    1  UNL1       -0.0010
      8 C         169.0780  120.4170  182.4020 C.ar    1  UNL1        0.0111
      9 C         169.6960  120.5400  183.6490 C.ar    1  UNL1        0.0577
     10 C         168.9820  121.0530  184.7330 C.ar    1  UNL1        0.0111
     11 C         167.6520  121.4400  184.5690 C.ar    1  UNL1       -0.0010
     12 N         165.5160  124.7690  180.2270 N.3     1  UNL1       -0.1283
     13 C         168.0970  124.2030  182.0910 C.ar    1  UNL1       -0.0019
     14 C         167.0650  124.3880  183.0150 C.ar    1  UNL1        0.0060
     15 C         167.3610  124.7740  184.3230 C.ar    1  UNL1       -0.0019
     16 O         165.5390  122.7660  182.1320 O.3     1  UNL1       -0.3456
     17 CL        171.4080  120.0390  183.8570 Cl      1  UNL1       -0.0822
     18 C         165.6610  124.1020  182.6350 C.3     1  UNL1        0.1568
@<TRIPOS>BOND
     1     3     2   ar
     2     4     2   ar
     3     6     5    1
     4     7     6   ar
     5     8     7   ar
     6     9     8   ar
     7    10     9   ar
     8    11     6   ar
     9    11    10   ar
    10    12     1    1
    11    13     3   ar
    12    14    13   ar
    13    15    14   ar
    14    15     4   ar
    15    16     5    1
    16    17     9    1
    17    18    16    1
    18    18    14    1
    19    18     1    1
