@<TRIPOS>MOLECULE
2XNU_VU3_C1206
 23 26 0 0 0
SMALL
GASTEIGER

@<TRIPOS>ATOM
      1 C         164.0890  120.6460  182.7170 C.3     1  UNL1        0.0631
      2 C         165.4400  119.9560  182.7260 C.ar    1  UNL1        0.0604
      3 N         165.8950  119.1460  183.7170 N.ar    1  UNL1       -0.2496
      4 C         167.1580  118.7420  183.4800 C.ar    1  UNL1        0.0809
      5 C         168.0610  117.9140  184.1480 C.ar    1  UNL1        0.0191
      6 C         169.3280  117.6950  183.5980 C.ar    1  UNL1        0.0015
      7 C         169.6880  118.3170  182.3980 C.ar    1  UNL1        0.0001
      8 C         168.7770  119.1450  181.7390 C.ar    1  UNL1        0.0015
      9 C         167.5110  119.3520  182.2930 C.ar    1  UNL1        0.0188
     10 C         164.2060  122.0480  183.3340 C.3     1  UNL1        0.0784
     11 C         169.7690  122.9470  186.8380 C.ar    1  UNL1       -0.0043
     12 C         170.9690  122.6110  187.4670 C.ar    1  UNL1       -0.0003
     13 C         171.1500  121.3420  188.0160 C.ar    1  UNL1       -0.0000
     14 C         170.1090  120.4160  187.9740 C.ar    1  UNL1       -0.0003
     15 C         168.8970  120.7610  187.3720 C.ar    1  UNL1       -0.0043
     16 C         168.7270  122.0200  186.7800 C.ar    1  UNL1       -0.0224
     17 C         167.4200  122.4120  186.1880 C.3     1  UNL1        0.0251
     18 C         166.4170  121.2580  186.2000 C.3     1  UNL1        0.0217
     19 C         167.5240  123.1110  184.8270 C.3     1  UNL1        0.0217
     20 C         166.1410  123.3810  184.2180 C.3     1  UNL1        0.0724
     21 C         165.0910  121.6850  185.5840 C.3     1  UNL1        0.0724
     22 C         166.4450  120.1530  181.7830 C.ar    1  UNL1        0.0162
     23 N         165.3930  122.1090  184.2120 N.3     1  UNL1       -0.2723
@<TRIPOS>BOND
     1     2     1    1
     2     3     2   ar
     3     4     3   ar
     4     5     4   ar
     5     6     5   ar
     6     7     6   ar
     7     8     7   ar
     8     9     8   ar
     9     9     4   ar
    10    10     1    1
    11    12    11   ar
    12    13    12   ar
    13    14    13   ar
    14    15    14   ar
    15    16    15   ar
    16    16    11   ar
    17    17    16    1
    18    18    17    1
    19    19    17    1
    20    20    19    1
    21    21    18    1
    22    22     9   ar
    23    22     2   ar
    24    23    20    1
    25    23    10    1
    26    23    21    1
