@<TRIPOS>MOLECULE
3PMZ_TUB_E220
 45 51 0 0 0
SMALL
GASTEIGER

@<TRIPOS>ATOM
      1 C         163.9990  124.7330  178.0310 C.ar    1  UNL1        0.1726
      2 C         164.3230  123.8610  179.0810 C.ar    1  UNL1        0.1788
      3 C         164.4350  122.4820  178.8570 C.ar    1  UNL1        0.0374
      4 C         164.2580  121.9550  177.6040 C.ar    1  UNL1       -0.0081
      5 C         163.9550  122.8530  176.5130 C.ar    1  UNL1       -0.0203
      6 C         163.8350  124.2040  176.7320 C.ar    1  UNL1        0.0356
      7 C         164.4580  120.5010  177.5960 C.3     1  UNL1        0.0843
      8 N         163.9940  119.9680  176.3010 N.3     1  UNL1       -0.2685
      9 C         164.1270  120.9100  175.1530 C.3     1  UNL1        0.0771
     10 C         163.3310  122.2180  175.2730 C.3     1  UNL1        0.0435
     11 C         170.7520  121.2400  182.4930 C.ar    1  UNL1        0.2632
     12 C         171.4370  120.6430  183.6190 C.ar    1  UNL1        0.1802
     13 C         170.9360  120.8040  184.9050 C.ar    1  UNL1        0.0363
     14 C         169.8020  121.5820  185.0690 C.ar    1  UNL1       -0.0088
     15 C         169.1610  122.1750  183.9930 C.ar    1  UNL1        0.0612
     16 C         169.6250  121.9680  182.6950 C.ar    1  UNL1        0.1880
     17 C         169.2780  121.7740  186.4610 C.3     1  UNL1        0.0874
     18 C         168.2350  122.8790  186.6570 C.3     1  UNL1        0.1138
     19 C         167.8830  122.8520  184.3550 C.3     1  UNL1        0.0890
     20 O         164.5240  124.2890  180.4660 O.3     1  UNL1       -0.4472
     21 C         163.8610  124.0890  181.8420 C.ar    1  UNL1        0.1838
     22 C         165.9900  120.2710  177.4790 C.3     1  UNL1        0.0468
     23 C         166.8330  120.8860  178.5820 C.ar    1  UNL1       -0.0203
     24 C         165.1870  123.7920  182.2100 C.ar    1  UNL1        0.0368
     25 C         165.4430  123.0680  183.3470 C.ar    1  UNL1       -0.0129
     26 C         164.3890  122.6400  184.1640 C.ar    1  UNL1       -0.0006
     27 C         163.0750  122.9210  183.8300 C.ar    1  UNL1        0.0449
     28 C         162.8100  123.6680  182.6740 C.ar    1  UNL1        0.2298
     29 C         167.1220  120.1450  179.7260 C.ar    1  UNL1       -0.0011
     30 C         167.8790  120.6620  180.7600 C.ar    1  UNL1        0.0372
     31 C         168.0240  122.7580  179.5010 C.ar    1  UNL1        0.0372
     32 C         167.3100  122.1920  178.4600 C.ar    1  UNL1       -0.0011
     33 O         169.0750  122.5570  181.5740 O.3     1  UNL1       -0.4503
     34 C         166.9830  123.1070  183.1390 C.3     1  UNL1        0.0864
     35 O         172.5270  119.8930  183.3260 O.3     1  UNL1       -0.4681
     36 O         163.8230  126.1570  178.1820 O.3     1  UNL1       -0.4684
     37 O         161.4530  123.8710  182.2760 O.3     1  UNL1       -0.2833
     38 C         168.3110  121.9800  180.6140 C.ar    1  UNL1        0.1454
     39 C         168.9190  124.8770  185.3210 C.3     1  UNL1        0.1708
     40 C         166.6580  124.3640  185.8730 C.3     1  UNL1        0.1708
     41 C         162.6250  119.4610  176.3800 C.3     1  UNL1        0.0899
     42 O         171.2360  121.0070  181.2480 O.3     1  UNL1       -0.2800
     43 C         173.1220  119.1140  184.3740 C.3     1  UNL1        0.2526
     44 C         163.6290  126.9430  176.9860 C.3     1  UNL1        0.2526
     45 N         167.9650  123.7750  185.5120 N.4     1  UNL1        0.3056
@<TRIPOS>UNITY_ATOM_ATTR
45 1
charge 1
@<TRIPOS>BOND
     1     2     1   ar
     2     3     2   ar
     3     4     3   ar
     4     5     4   ar
     5     6     5   ar
     6     6     1   ar
     7     7     4    1
     8     7     8    1
     9     9     8    1
    10    10     9    1
    11    10     5    1
    12    12    11   ar
    13    13    12   ar
    14    14    13   ar
    15    15    14   ar
    16    16    15   ar
    17    16    11   ar
    18    17    14    1
    19    18    17    1
    20    19    15    1
    21    20     2    1
    22    21    20    1
    23    22     7    1
    24    23    22    1
    25    24    21   ar
    26    25    24   ar
    27    26    25   ar
    28    27    26   ar
    29    28    27   ar
    30    28    21   ar
    31    29    23   ar
    32    30    29   ar
    33    32    31   ar
    34    32    23   ar
    35    33    16    1
    36    34    25    1
    37    19    34    1
    38    35    12    1
    39    36     1    1
    40    37    28    1
    41    38    31   ar
    42    38    30   ar
    43    38    33    1
    44    41     8    1
    45    42    11    1
    46    43    35    1
    47    44    36    1
    48    45    19    1
    49    45    40    1
    50    45    39    1
    51    45    18    1
