@<TRIPOS>MOLECULE
3SH1_MLK_B301
 49 56 0 0 0
SMALL
GASTEIGER

@<TRIPOS>ATOM
      1 O         164.5680  124.5690  178.5610 O.2     1  UNL1       -0.2741
      2 C         163.5930  125.2450  178.3030 C.2     1  UNL1        0.2356
      3 C         163.3370  125.9680  176.9950 C.3     1  UNL1        0.0951
      4 C         162.4380  127.1350  177.4530 C.3     1  UNL1        0.0865
      5 C         163.2090  128.4540  177.3500 C.3     1  UNL1        0.0101
      6 C         162.1160  126.7760  178.8970 C.2     1  UNL1        0.2351
      7 O         161.5740  127.5320  179.6860 O.2     1  UNL1       -0.2741
      8 N         162.5450  125.5020  179.1060 N.am    1  UNL1       -0.2079
      9 C         161.9730  124.5150  179.9690 C.ar    1  UNL1        0.0668
     10 C         160.8660  123.7860  179.5230 C.ar    1  UNL1        0.0155
     11 C         160.2810  122.8020  180.3140 C.ar    1  UNL1        0.0013
     12 C         160.7810  122.5080  181.5740 C.ar    1  UNL1        0.0003
     13 C         161.8770  123.2000  182.0430 C.ar    1  UNL1        0.0077
     14 C         162.4840  124.1950  181.2590 C.ar    1  UNL1        0.0897
     15 C         163.6470  124.8840  181.8380 C.2     1  UNL1        0.3424
     16 O         164.1000  125.8770  181.3080 O.2     1  UNL1       -0.2448
     17 O         164.2290  124.3830  182.9430 O.3     1  UNL1       -0.4454
     18 C         165.6810  124.3550  182.9970 C.3     1  UNL1        0.2100
     19 C         166.1420  123.5450  184.2040 C.3     1  UNL1        0.0577
     20 C         164.9070  123.3950  185.0770 C.3     1  UNL1        0.0075
     21 C         165.2530  122.6690  186.3700 C.3     1  UNL1        0.0298
     22 C         166.0140  121.3810  186.1030 C.3     1  UNL1        0.1166
     23 O         166.6750  121.0310  187.3290 O.3     1  UNL1       -0.3535
     24 C         165.9560  121.6400  188.4070 C.3     1  UNL1        0.1740
     25 C         167.0420  121.3770  184.9890 C.3     1  UNL1        0.0436
     26 C         166.6420  122.1600  183.7270 C.3     1  UNL1        0.0382
     27 C         168.3610  122.1320  185.3670 C.3     1  UNL1        0.0926
     28 N         168.0260  123.4490  185.8710 N.3     1  UNL1       -0.2715
     29 C         169.2350  124.0850  186.3880 C.3     1  UNL1        0.0722
     30 C         169.8960  123.1390  187.4010 C.3     1  UNL1        0.0188
     31 C         167.2700  124.2890  184.9550 C.3     1  UNL1        0.0757
     32 C         167.3900  119.9390  184.6420 C.3     1  UNL1        0.0086
     33 C         167.9350  119.1140  185.8220 C.3     1  UNL1        0.0051
     34 C         169.1370  118.2980  185.2610 C.3     1  UNL1        0.0546
     35 C         170.4380  119.0890  185.5960 C.3     1  UNL1        0.1201
     36 O         171.6160  118.2950  185.4050 O.3     1  UNL1       -0.3534
     37 C         171.3110  116.9560  185.8250 C.3     1  UNL1        0.1740
     38 C         170.5760  120.4420  184.9040 C.3     1  UNL1        0.0627
     39 C         168.4730  119.8110  183.5350 C.3     1  UNL1        0.0580
     40 C         168.9210  118.3260  183.7240 C.3     1  UNL1        0.1200
     41 O         170.0650  117.9840  182.9490 O.3     1  UNL1       -0.3534
     42 C         169.6400  117.8820  181.5860 C.3     1  UNL1        0.1740
     43 C         169.6590  120.7650  183.7240 C.3     1  UNL1        0.1601
     44 O         170.4330  120.8400  182.4940 O.3     1  UNL1       -0.2228
     45 C         169.1030  122.1840  184.0060 C.3     1  UNL1        0.1900
     46 O         170.1360  123.1770  183.9200 O.3     1  UNL1       -0.2192
     47 C         167.9800  122.5010  182.9990 C.3     1  UNL1        0.1469
     48 O         168.1750  121.8200  181.7680 O.3     1  UNL1       -0.3509
     49 C         167.4090  122.5020  180.7820 C.3     1  UNL1        0.1741
@<TRIPOS>BOND
     1     2     1    2
     2     3     2    1
     3     4     3    1
     4     4     5    1
     5     6     4    1
     6     7     6    2
     7     8     6   am
     8     8     2   am
     9     9     8    1
    10    10     9   ar
    11    11    10   ar
    12    12    11   ar
    13    13    12   ar
    14    14    13   ar
    15    14     9   ar
    16    15    14    1
    17    16    15    2
    18    17    15    1
    19    18    17    1
    20    19    18    1
    21    20    19    1
    22    21    20    1
    23    22    21    1
    24    22    23    1
    25    24    23    1
    26    25    22    1
    27    26    25    1
    28    26    19    1
    29    27    25    1
    30    27    28    1
    31    29    28    1
    32    30    29    1
    33    31    19    1
    34    31    28    1
    35    32    25    1
    36    32    33    1
    37    34    33    1
    38    35    34    1
    39    35    36    1
    40    37    36    1
    41    38    35    1
    42    39    32    1
    43    40    39    1
    44    40    34    1
    45    40    41    1
    46    42    41    1
    47    43    39    1
    48    43    38    1
    49    43    44    1
    50    45    27    1
    51    45    43    1
    52    45    46    1
    53    47    26    1
    54    47    45    1
    55    47    48    1
    56    49    48    1
