@<TRIPOS>MOLECULE
3U8L_09Q_J211
 19 21 0 0 0
SMALL
GASTEIGER

@<TRIPOS>ATOM
      1 C         171.8980  120.1080  188.9450 C.ar    1  UNL1        0.0015
      2 C         170.9540  119.1730  189.4260 C.ar    1  UNL1        0.0000
      3 C         171.3570  117.8950  189.8650 C.ar    1  UNL1        0.0000
      4 C         172.7180  117.5360  189.8210 C.ar    1  UNL1        0.0000
      5 C         173.6660  118.4550  189.3420 C.ar    1  UNL1        0.0000
      6 C         173.2600  119.7330  188.9110 C.ar    1  UNL1        0.0000
      7 C         170.7450  123.9440  187.5880 C.ar    1  UNL1        0.1133
      8 C         172.1200  122.6130  188.8910 C.ar    1  UNL1        0.0989
      9 C         171.4720  121.4350  188.4640 C.ar    1  UNL1        0.0204
     10 C         170.4060  121.5730  187.5380 C.ar    1  UNL1        0.0176
     11 C         170.0020  122.8500  187.0750 C.ar    1  UNL1        0.0673
     12 C         168.3660  121.9250  185.4070 C.3     1  UNL1        0.0924
     13 C         167.1540  121.3620  186.1640 C.3     1  UNL1        0.0402
     14 C         165.8660  122.1900  185.9480 C.3     1  UNL1        0.0905
     15 C         166.9900  124.3420  185.2920 C.3     1  UNL1        0.1100
     16 C         168.4720  124.3450  185.7490 C.3     1  UNL1        0.1096
     17 N         168.9880  123.0220  186.1680 N.pl3   1  UNL1       -0.3048
     18 N         166.0810  123.6260  186.2210 N.3     1  UNL1       -0.2162
     19 N         171.7620  123.8380  188.4660 N.ar    1  UNL1       -0.2410
@<TRIPOS>BOND
     1     2     1   ar
     2     3     2   ar
     3     4     3   ar
     4     5     4   ar
     5     6     5   ar
     6     6     1   ar
     7     9     8   ar
     8     9     1    1
     9    10     9   ar
    10    11    10   ar
    11    11     7   ar
    12    13    12    1
    13    14    13    1
    14    16    15    1
    15    17    16    1
    16    17    12    1
    17    17    11    1
    18    18    15    1
    19    18    14    1
    20    19     8   ar
    21    19     7   ar
