@<TRIPOS>MOLECULE
3WIP_ACH_A301
 10 9 0 0 0
SMALL
GASTEIGER

@<TRIPOS>ATOM
      1 N         167.0210  122.7230  185.7800 N.4     1  UNL1        0.3135
      2 C         167.8650  121.9180  186.7180 C.3     1  UNL1        0.1575
      3 C         169.2770  122.4830  186.7990 C.3     1  UNL1        0.2688
      4 O         170.1250  122.0020  187.8120 O.3     1  UNL1       -0.4420
      5 C         171.0040  122.9670  188.3230 C.2     1  UNL1        0.3178
      6 O         170.9460  124.1300  187.8900 O.2     1  UNL1       -0.2501
      7 C         172.0040  122.6170  189.3940 C.3     1  UNL1        0.1212
      8 C         167.2170  122.2890  184.4070 C.3     1  UNL1        0.1711
      9 C         167.3450  124.1390  185.7080 C.3     1  UNL1        0.1711
     10 C         165.6360  122.7100  186.2170 C.3     1  UNL1        0.1711
@<TRIPOS>UNITY_ATOM_ATTR
1 1
charge 1
@<TRIPOS>BOND
     1     2     1    1
     2     3     2    1
     3     4     3    1
     4     5     4    1
     5     6     5    2
     6     7     5    1
     7     1     8    1
     8     9     1    1
     9    10     1    1
