@<TRIPOS>MOLECULE
3WTO_N2Y_A301
 14 15 0 0 0
SMALL
GASTEIGER

@<TRIPOS>ATOM
      1  N2       165.8900  123.4900  186.8040 N.pl3 301  N2Y301     -0.0878
      2  N3       167.9330  123.1190  185.6400 N.ar  301  N2Y301     -0.2916
      3  C1       166.5640  122.8650  185.9120 C.ar  301  N2Y301      0.2382
      4  N4       166.0650  121.8480  185.0720 N.ar  301  N2Y301     -0.2094
      5  C2       167.1280  121.3800  184.1870 C.ar  301  N2Y301      0.1206
      6  C3       168.3670  122.2220  184.5600 C.ar  301  N2Y301      0.0993
      7  C4       171.8860  123.3010  189.2590 C.ar  301  N2Y301      0.1383
      8 CL1       173.1740  123.1330  190.4260 Cl    301  N2Y301     -0.0613
      9  N6       171.8220  124.4430  188.5870 N.ar  301  N2Y301     -0.2327
     10  C5       170.8820  124.6840  187.6730 C.ar  301  N2Y301      0.0974
     11  C6       169.8750  123.7310  187.3500 C.ar  301  N2Y301      0.0197
     12  C7       169.9100  122.4820  188.0520 C.ar  301  N2Y301      0.0016
     13  C8       170.9300  122.2520  189.0270 C.ar  301  N2Y301      0.0305
     14  C9       168.8260  124.1180  186.2860 C.3   301  N2Y301      0.1371
@<TRIPOS>BOND
     1     5     6   ar
     2     5     4   ar
     3     6     2   ar
     4     4     3   ar
     5     2     3   ar
     6     2    14    1
     7     3     1    1
     8    14    11    1
     9    11    10   ar
    10    11    12   ar
    11    10     9   ar
    12    12    13   ar
    13     9     7   ar
    14    13     7   ar
    15     7     8    1
