@<TRIPOS>MOLECULE
3ZDG_XRX_I301
 13 12 0 0 0
SMALL
GASTEIGER

@<TRIPOS>ATOM
      1 N         167.1500  122.5850  186.3320 N.3     1  UNL1       -0.2715
      2 C         169.6020  124.3140  186.5350 C.3     1  UNL1        0.2115
      3 O         170.0410  123.1630  187.2680 O.3     1  UNL1       -0.4345
      4 C         167.5960  121.2210  185.9140 C.3     1  UNL1        0.0896
      5 N         171.0080  122.2180  189.1290 N.am    1  UNL1       -0.2425
      6 O         171.5380  124.3830  188.4900 O.2     1  UNL1       -0.2262
      7 C         167.4490  123.6010  185.2830 C.3     1  UNL1        0.0613
      8 C         168.9710  123.8990  185.1980 C.3     1  UNL1        0.0634
      9 C         171.0080  123.2990  188.2340 C.2     1  UNL1        0.4050
     10 C         165.7160  122.6060  186.7470 C.3     1  UNL1        0.0896
     11 C         166.8400  123.1660  183.9280 C.3     1  UNL1        0.0175
     12 C         171.9180  122.2720  190.2890 C.3     1  UNL1        0.1183
     13 C         170.2830  120.9550  188.8740 C.3     1  UNL1        0.1183
@<TRIPOS>BOND
     1     3     2    1
     2     4     1    1
     3     7     1    1
     4     8     7    1
     5     8     2    1
     6     9     6    2
     7     9     5   am
     8     9     3    1
     9    10     1    1
    10     7    11    1
    11    12     5    1
    12    13     5    1
