@<TRIPOS>MOLECULE
4AFT_QMR_B301
 16 19 0 0 0
SMALL
GASTEIGER

@<TRIPOS>ATOM
      1 C         166.7260  122.1180  185.8580 C.3     1  UNL1        0.0930
      2 N         166.8230  123.4920  186.3980 N.3     1  UNL1       -0.2174
      3 C         167.4360  124.3990  185.3980 C.3     1  UNL1        0.0930
      4 C         168.7860  123.8420  184.9640 C.3     1  UNL1        0.0398
      5 C         168.5230  122.5100  184.2770 C.3     1  UNL1        0.0116
      6 C         168.1120  121.6330  185.4470 C.3     1  UNL1        0.0398
      7 C         169.0830  122.0450  186.4690 C.ar    1  UNL1       -0.0234
      8 C         169.5720  121.3730  187.5710 C.ar    1  UNL1        0.0161
      9 C         170.4840  122.0540  188.3790 C.ar    1  UNL1        0.0986
     10 N         171.0200  121.4690  189.4660 N.ar    1  UNL1       -0.2407
     11 C         171.8940  122.1450  190.2260 C.ar    1  UNL1        0.1195
     12 C         172.2830  123.4520  189.9340 C.ar    1  UNL1        0.1195
     13 N         171.7890  124.0860  188.8670 N.ar    1  UNL1       -0.2407
     14 C         170.9010  123.4590  188.0640 C.ar    1  UNL1        0.0986
     15 C         170.3800  124.1110  186.9550 C.ar    1  UNL1        0.0161
     16 C         169.4930  123.4120  186.1670 C.ar    1  UNL1       -0.0234
@<TRIPOS>BOND
     1     2     1    1
     2     3     2    1
     3     4     3    1
     4     5     4    1
     5     6     5    1
     6     6     1    1
     7     7     6    1
     8     8     7   ar
     9     9     8   ar
    10    10     9   ar
    11    11    10   ar
    12    12    11   ar
    13    13    12   ar
    14    14    13   ar
    15    14     9   ar
    16    15    14   ar
    17    16     4    1
    18    16    15   ar
    19    16     7   ar
