@<TRIPOS>MOLECULE
4NZB_NSE_B301
 19 21 0 0 0
SMALL
GASTEIGER

@<TRIPOS>ATOM
      1 C         170.9270  120.2890  188.8050 C.1     1  UNL1        0.1004
      2 C         163.6160  123.3510  183.1590 C.ar    1  UNL1        0.0989
      3 C         169.9760  122.1070  187.4530 C.ar    1  UNL1        0.0150
      4 C         170.8500  124.3790  187.6690 C.ar    1  UNL1        0.0048
      5 C         167.3400  124.1540  184.8230 C.ar    1  UNL1        0.2051
      6 C         168.9930  123.8910  186.0660 C.ar    1  UNL1        0.2600
      7 C         169.9700  123.4590  187.0720 C.ar    1  UNL1        0.0567
      8 C         166.0450  123.9160  184.2200 C.ar    1  UNL1        0.0583
      9 C         165.3670  122.7200  184.5010 C.ar    1  UNL1        0.1020
     10 C         165.4590  124.8620  183.3660 C.ar    1  UNL1        0.0063
     11 C         164.2170  124.5720  182.8160 C.ar    1  UNL1        0.0208
     12 N         170.9630  119.1710  189.1250 N.1     1  UNL1       -0.1908
     13 N         167.8260  123.3430  185.8200 N.ar    1  UNL1       -0.1869
     14 C         170.8910  121.6690  188.4200 C.ar    1  UNL1        0.0686
     15 N         168.1390  125.1420  184.4570 N.ar    1  UNL1       -0.0556
     16 N         164.1680  122.4330  183.9740 N.ar    1  UNL1       -0.2422
     17 O         169.2620  124.9770  185.2920 O.2     1  UNL1       -0.3324
     18 C         171.7520  123.9260  188.6330 C.ar    1  UNL1        0.0008
     19 C         171.7830  122.5800  189.0110 C.ar    1  UNL1        0.0103
@<TRIPOS>BOND
     1     7     6    1
     2     7     4   ar
     3     7     3   ar
     4     8     5    1
     5     9     8   ar
     6    10     8   ar
     7    11    10   ar
     8    11     2   ar
     9    12     1    3
    10    13     5   ar
    11    13     6   ar
    12    14     3   ar
    13    14     1    1
    14    15     5   ar
    15    16     9   ar
    16    16     2   ar
    17    17    15   ar
    18    17     6   ar
    19    18     4   ar
    20    19    18   ar
    21    19    14   ar
