@<TRIPOS>MOLECULE
4UM1_09P_E211
 16 17 0 0 0
SMALL
GASTEIGER

@<TRIPOS>ATOM
      1 C         167.3610  124.3260  185.1220 C.3     1  UNL1        0.1100
      2 N         166.6590  123.6180  186.2140 N.3     1  UNL1       -0.2162
      3 C         166.4970  122.1440  186.0940 C.3     1  UNL1        0.0905
      4 C         167.8300  121.3990  186.2820 C.3     1  UNL1        0.0402
      5 C         168.9180  121.9660  185.3610 C.3     1  UNL1        0.0924
      6 N         169.4550  123.2030  185.9670 N.pl3   1  UNL1       -0.3047
      7 C         168.8690  124.4470  185.3970 C.3     1  UNL1        0.1096
      8 C         172.3040  123.3200  188.9750 C.ar    1  UNL1        0.1357
      9 C         171.9610  122.0450  188.4870 C.ar    1  UNL1        0.1589
     10 C         170.9830  121.9980  187.4490 C.ar    1  UNL1        0.0546
     11 C         170.3960  123.2040  186.9580 C.ar    1  UNL1        0.0704
     12 C         170.8530  124.4110  187.5530 C.ar    1  UNL1        0.1135
     13 N         171.7740  124.4660  188.5300 N.ar    1  UNL1       -0.2378
     14 O         172.5870  120.9390  189.0540 O.3     1  UNL1       -0.4738
     15 C         172.1490  119.6150  188.7360 C.3     1  UNL1        0.2056
     16 C         173.3780  118.7150  188.6160 C.3     1  UNL1        0.0512
@<TRIPOS>BOND
     1     2     1    1
     2     3     2    1
     3     4     3    1
     4     5     4    1
     5     6     5    1
     6     7     1    1
     7     7     6    1
     8     9     8   ar
     9    10     9   ar
    10    11    10   ar
    11    11     6    1
    12    12    11   ar
    13    13    12   ar
    14    13     8   ar
    15    14     9    1
    16    15    14    1
    17    16    15    1
