@<TRIPOS>MOLECULE
4WV9_MD4_A301
 43 46 0 0 0
SMALL
GASTEIGER

@<TRIPOS>ATOM
      1  C21      165.3640  124.9500  183.4380 C.3   301  MD4301     -0.1001
      2  N16      166.4450  124.0170  183.8110 N.4   301  MD4301      0.3802
      3  C20      167.3680  123.9740  182.6470 C.3   301  MD4301     -0.1001
      4  C15      165.9470  122.6970  184.2420 C.3   301  MD4301     -0.0738
      5  C14      165.2960  122.9210  185.6000 C.3   301  MD4301     -0.0662
      6  C13      166.0340  124.1330  186.1450 C.3   301  MD4301     -0.0662
      7  C17      167.0980  121.7280  184.4670 C.3   301  MD4301     -0.0422
      8  C19      168.1120  122.2740  185.4830 C.3   301  MD4301      0.0515
      9  C18      168.3620  123.7840  185.3580 C.3   301  MD4301     -0.0422
     10  C12      167.0510  124.4950  185.0600 C.3   301  MD4301     -0.0738
     11  N10      169.3720  121.5330  185.2810 N.ar  301  MD4301     -0.2482
     12  N9       170.1440  121.9390  184.1890 N.ar  301  MD4301     -0.0649
     13  N8       171.2640  121.0980  184.2280 N.ar  301  MD4301     -0.1295
     14  C11      169.9450  120.5370  185.9560 C.ar  301  MD4301      0.0536
     15  C7       171.1320  120.2630  185.2920 C.ar  301  MD4301      0.1127
     16  C5       172.1070  119.2110  185.6610 C.ar  301  MD4301      0.0065
     17  C6       172.1560  118.6590  186.9380 C.ar  301  MD4301     -0.0343
     18  C1       173.0950  117.6650  187.1990 C.ar  301  MD4301      0.0282
     19  C4       172.9770  118.7590  184.6820 C.ar  301  MD4301     -0.0343
     20  C3       173.8920  117.7630  184.9970 C.ar  301  MD4301      0.0282
     21  N2       173.9310  117.2470  186.2350 N.ar  301  MD4301     -0.2632
     22 H212      164.6800  125.0370  184.2430 H     301  MD4301      0.0029
     23 H213      165.7770  125.9010  183.2220 H     301  MD4301      0.0029
     24 H211      164.8580  124.5830  182.5840 H     301  MD4301      0.0029
     25 H201      168.2130  123.3840  182.8890 H     301  MD4301      0.0029
     26 H202      167.6800  124.9570  182.4070 H     301  MD4301      0.0029
     27 H203      166.8670  123.5500  181.8160 H     301  MD4301      0.0029
     28  H15      165.2200  122.2800  183.5310 H     301  MD4301      0.0100
     29 H141      165.4360  122.0530  186.2490 H     301  MD4301      0.0249
     30 H142      164.2290  123.1280  185.4940 H     301  MD4301      0.0249
     31 H132      166.5410  123.8870  187.0820 H     301  MD4301      0.0249
     32 H131      165.3430  124.9600  186.3180 H     301  MD4301      0.0249
     33 H172      166.7040  120.7750  184.8260 H     301  MD4301      0.0270
     34 H171      167.6040  121.5420  183.5160 H     301  MD4301      0.0270
     35  H19      167.7280  122.0720  186.4920 H     301  MD4301      0.0544
     36 H182      168.7870  124.1670  186.2880 H     301  MD4301      0.0270
     37 H181      169.0760  123.9750  184.5530 H     301  MD4301      0.0270
     38  H12      167.2060  125.5830  185.0380 H     301  MD4301      0.0100
     39  H11      169.5570  120.0370  186.8340 H     301  MD4301      0.0849
     40  H6       171.4810  118.9990  187.7130 H     301  MD4301      0.0639
     41  H1       173.1530  117.2280  188.1880 H     301  MD4301      0.0830
     42  H4       172.9440  119.1770  183.6830 H     301  MD4301      0.0639
     43  H3       174.5820  117.4070  184.2420 H     301  MD4301      0.0830
@<TRIPOS>BOND
     1    27     3    1
     2    26     3    1
     3    24     1    1
     4     3    25    1
     5     3     2    1
     6    23     1    1
     7     1     2    1
     8     1    22    1
     9    34     7    1
    10    28     4    1
    11    42    19    1
    12     2     4    1
    13     2    10    1
    14    12    13   ar
    15    12    11   ar
    16    13    15   ar
    17     4     7    1
    18     4     5    1
    19    43    20    1
    20     7    33    1
    21     7     8    1
    22    37     9    1
    23    19    20   ar
    24    19    16   ar
    25    20    21   ar
    26    38    10    1
    27    10     9    1
    28    10     6    1
    29    11     8    1
    30    11    14   ar
    31    15    16    1
    32    15    14   ar
    33     9     8    1
    34     9    36    1
    35     8    35    1
    36    30     5    1
    37     5     6    1
    38     5    29    1
    39    16    17   ar
    40    14    39    1
    41     6    32    1
    42     6    31    1
    43    21    18   ar
    44    17    18   ar
    45    17    40    1
    46    18    41    1
