@<TRIPOS>MOLECULE
5AFK_L0B_E1205
 25 27 0 0 0
SMALL
GASTEIGER

@<TRIPOS>ATOM
      1 O         169.5530  121.5910  183.9600 O.2     1  UNL1       -0.2913
      2 C         169.9680  121.3570  185.0880 C.2     1  UNL1        0.1744
      3 C         167.5950  128.8630  180.7750 C.ar    1  UNL1       -0.0000
      4 C         168.7130  128.0650  180.9940 C.ar    1  UNL1       -0.0002
      5 C         168.5530  126.7430  181.4050 C.ar    1  UNL1       -0.0018
      6 C         167.2770  126.2060  181.5860 C.ar    1  UNL1        0.0077
      7 C         166.1580  127.0050  181.3750 C.ar    1  UNL1       -0.0018
      8 C         166.3210  128.3280  180.9670 C.ar    1  UNL1       -0.0002
      9 C         166.8390  124.9510  183.5540 C.3     1  UNL1        0.0534
     10 C         166.6460  123.6570  184.3310 C.3     1  UNL1        0.0604
     11 C         165.6530  123.9630  185.4430 C.3     1  UNL1        0.0161
     12 C         165.4280  122.7550  186.3320 C.3     1  UNL1        0.0028
     13 C         166.7750  122.2970  186.8670 C.3     1  UNL1        0.0165
     14 C         167.7280  122.0120  185.7290 C.3     1  UNL1        0.0652
     15 N         167.9190  123.2190  184.9090 N.3     1  UNL1       -0.2735
     16 C         168.5150  124.2910  185.7300 C.3     1  UNL1        0.0896
     17 C         169.0820  121.6010  186.2890 C.3     1  UNL1        0.0851
     18 C         167.1070  124.8110  182.0590 C.3     1  UNL1        0.1756
     19 O         168.3250  124.0790  181.8990 O.3     1  UNL1       -0.2183
     20 C         172.2160  120.7770  184.1700 C.ar    1  UNL1        0.0028
     21 C         171.3630  120.8450  185.2720 C.ar    1  UNL1        0.0347
     22 C         171.8050  120.4580  186.5360 C.ar    1  UNL1        0.0028
     23 C         173.1080  119.9940  186.6910 C.ar    1  UNL1        0.0001
     24 C         173.9580  119.9210  185.5890 C.ar    1  UNL1        0.0000
     25 C         173.5150  120.3120  184.3310 C.ar    1  UNL1        0.0001
@<TRIPOS>BOND
     1     2     1    2
     2     4     3   ar
     3     5     4   ar
     4     6     5   ar
     5     7     6   ar
     6     8     7   ar
     7     8     3   ar
     8    10     9    1
     9    11    10    1
    10    12    11    1
    11    13    12    1
    12    14    13    1
    13    15    10    1
    14    15    14    1
    15    16    15    1
    16    14    17    1
    17    17     2    1
    18    18     9    1
    19    18     6    1
    20    18    19    1
    21    21    20   ar
    22    21     2    1
    23    22    21   ar
    24    23    22   ar
    25    24    23   ar
    26    25    20   ar
    27    25    24   ar
