@<TRIPOS>MOLECULE
5AFL_L0B_C1206
 25 27 0 0 0
SMALL
GASTEIGER

@<TRIPOS>ATOM
      1 O         169.7610  121.4770  182.7500 O.3     1  UNL1       -0.2183
      2 C         170.2500  121.0380  183.7870 C.3     1  UNL1        0.1756
      3 C         167.4530  128.9450  180.5880 C.ar    1  UNL1        0.0000
      4 C         168.5860  128.2660  181.0230 C.ar    1  UNL1        0.0001
      5 C         168.4910  126.9460  181.4670 C.ar    1  UNL1        0.0028
      6 C         167.2620  126.2860  181.4810 C.ar    1  UNL1        0.0347
      7 C         166.1280  126.9720  181.0450 C.ar    1  UNL1        0.0028
      8 C         166.2240  128.2910  180.6020 C.ar    1  UNL1        0.0001
      9 C         166.7960  124.9110  183.4610 C.3     1  UNL1        0.0851
     10 C         166.8100  123.5690  184.1960 C.3     1  UNL1        0.0652
     11 C         166.1710  123.7590  185.5720 C.3     1  UNL1        0.0165
     12 C         166.1520  122.4610  186.3690 C.3     1  UNL1        0.0028
     13 C         167.5600  121.8760  186.4290 C.3     1  UNL1        0.0161
     14 C         168.1340  121.7270  185.0230 C.3     1  UNL1        0.0604
     15 N         168.1830  123.0410  184.3500 N.3     1  UNL1       -0.2735
     16 C         169.0210  123.9810  185.1180 C.3     1  UNL1        0.0896
     17 C         169.5230  121.1010  185.1200 C.3     1  UNL1        0.0534
     18 C         167.1570  124.8810  181.9710 C.2     1  UNL1        0.1744
     19 O         168.3990  124.1920  181.7720 O.2     1  UNL1       -0.2913
     20 C         172.3560  120.3980  182.5850 C.ar    1  UNL1       -0.0018
     21 C         171.6280  120.4400  183.7710 C.ar    1  UNL1        0.0077
     22 C         172.1840  119.9510  184.9500 C.ar    1  UNL1       -0.0018
     23 C         173.4650  119.4120  184.9380 C.ar    1  UNL1       -0.0002
     24 C         174.1910  119.3610  183.7510 C.ar    1  UNL1       -0.0000
     25 C         173.6370  119.8550  182.5750 C.ar    1  UNL1       -0.0002
@<TRIPOS>BOND
     1     2     1    1
     2     4     3   ar
     3     5     4   ar
     4     6     5   ar
     5     7     6   ar
     6     8     7   ar
     7     8     3   ar
     8    10     9    1
     9    11    10    1
    10    12    11    1
    11    13    12    1
    12    14    13    1
    13    15    14    1
    14    15    10    1
    15    16    15    1
    16    14    17    1
    17    17     2    1
    18    18     9    1
    19    18     6    1
    20    19    18    2
    21    21    20   ar
    22    21     2    1
    23    22    21   ar
    24    23    22   ar
    25    24    23   ar
    26    25    24   ar
    27    25    20   ar
