@<TRIPOS>MOLECULE
5AFN_L0B_D1205
 25 27 0 0 0
SMALL
GASTEIGER

@<TRIPOS>ATOM
      1 O         169.6540  122.2580  182.8510 O.3     1  UNL1       -0.2183
      2 C         170.1500  121.9220  183.9260 C.3     1  UNL1        0.1756
      3 C         166.4650  129.0770  179.9630 C.ar    1  UNL1        0.0000
      4 C         167.6930  128.5060  180.2760 C.ar    1  UNL1        0.0001
      5 C         167.7560  127.2220  180.8210 C.ar    1  UNL1        0.0028
      6 C         166.5910  126.4990  181.0490 C.ar    1  UNL1        0.0347
      7 C         165.3620  127.0800  180.7430 C.ar    1  UNL1        0.0028
      8 C         165.2980  128.3640  180.1980 C.ar    1  UNL1        0.0001
      9 C         166.4630  125.3020  183.1560 C.3     1  UNL1        0.0851
     10 C         166.5020  123.9870  183.9290 C.3     1  UNL1        0.0652
     11 C         165.6890  124.1500  185.2130 C.3     1  UNL1        0.0165
     12 C         165.7580  122.8920  186.0680 C.3     1  UNL1        0.0028
     13 C         167.2160  122.5310  186.3340 C.3     1  UNL1        0.0161
     14 C         167.9160  122.3440  184.9840 C.3     1  UNL1        0.0604
     15 N         167.8940  123.6160  184.2350 N.3     1  UNL1       -0.2735
     16 C         168.5700  124.6750  185.0110 C.3     1  UNL1        0.0896
     17 C         169.3560  121.9070  185.2180 C.3     1  UNL1        0.0534
     18 C         166.6500  125.1420  181.6500 C.2     1  UNL1        0.1744
     19 O         167.9340  124.5510  181.4420 O.2     1  UNL1       -0.2913
     20 C         172.4260  121.7550  182.9080 C.ar    1  UNL1       -0.0018
     21 C         171.5900  121.5230  183.9970 C.ar    1  UNL1        0.0077
     22 C         172.0820  120.9390  185.1630 C.ar    1  UNL1       -0.0018
     23 C         173.4220  120.5700  185.2390 C.ar    1  UNL1       -0.0002
     24 C         174.2660  120.8010  184.1520 C.ar    1  UNL1       -0.0000
     25 C         173.7690  121.3890  182.9900 C.ar    1  UNL1       -0.0002
@<TRIPOS>BOND
     1     2     1    1
     2     4     3   ar
     3     5     4   ar
     4     6     5   ar
     5     7     6   ar
     6     8     7   ar
     7     8     3   ar
     8    10     9    1
     9    11    10    1
    10    12    11    1
    11    13    12    1
    12    14    13    1
    13    15    14    1
    14    15    10    1
    15    16    15    1
    16    14    17    1
    17    17     2    1
    18    18     9    1
    19    18     6    1
    20    19    18    2
    21    21    20   ar
    22    21     2    1
    23    22    21   ar
    24    23    22   ar
    25    24    23   ar
    26    25    24   ar
    27    25    20   ar
