@<TRIPOS>MOLECULE
5BRX_TI4_D302
 34 37 0 0 0
SMALL
GASTEIGER

@<TRIPOS>ATOM
      1  C1       170.3430  121.3900  188.5570 C.ar  302  TI4302     -0.0433
      2  C2       171.2480  122.2890  189.0640 C.ar  302  TI4302      0.0276
      3  N3       171.3590  123.5530  188.6660 N.ar  302  TI4302     -0.2629
      4  C4       170.5020  123.9030  187.7080 C.ar  302  TI4302      0.0322
      5  C5       169.5570  123.0930  187.1270 C.ar  302  TI4302     -0.0119
      6  C6       169.4830  121.7980  187.5710 C.ar  302  TI4302     -0.0542
      7  C7       168.6770  123.6630  186.0510 C.3   302  TI4302      0.0399
      8  N8       167.2610  123.8960  186.4310 N.3   302  TI4302     -0.2946
      9  C9       166.6870  124.8320  185.4370 C.3   302  TI4302      0.0023
     10  C10      166.7230  124.1930  184.0740 C.3   302  TI4302     -0.0276
     11  C11      168.1290  123.7740  183.7110 C.3   302  TI4302     -0.0445
     12  C12      168.6800  122.8510  184.7640 C.3   302  TI4302     -0.0207
     13  C13      167.7830  121.6350  184.7460 C.3   302  TI4302     -0.0445
     14  C14      166.3790  122.0270  185.1240 C.3   302  TI4302     -0.0276
     15  C15      165.8320  122.9770  184.1010 C.3   302  TI4302     -0.0450
     16  C16      166.4240  122.6810  186.4790 C.3   302  TI4302      0.0023
     17  H1       170.3100  120.3730  188.9310 H     302  TI4302      0.0633
     18  H2       171.9370  121.9880  189.8450 H     302  TI4302      0.0829
     19  H4       170.5920  124.9330  187.3820 H     302  TI4302      0.0833
     20  H6       168.7590  121.1100  187.1510 H     302  TI4302      0.0622
     21  H7       169.0570  124.6620  185.8240 H     302  TI4302      0.0515
     22  H92      167.2890  125.7450  185.4700 H     302  TI4302      0.0429
     23  H93      165.6640  125.0510  185.7520 H     302  TI4302      0.0429
     24  H10      166.3510  124.9010  183.3300 H     302  TI4302      0.0313
     25 H113      168.7670  124.6570  183.6260 H     302  TI4302      0.0272
     26 H112      168.1240  123.2670  182.7430 H     302  TI4302      0.0272
     27  H12      169.7020  122.5610  184.5090 H     302  TI4302      0.0319
     28 H133      167.7850  121.1890  183.7490 H     302  TI4302      0.0272
     29 H132      168.1600  120.8890  185.4500 H     302  TI4302      0.0272
     30  H14      165.7500  121.1340  185.1690 H     302  TI4302      0.0313
     31 H152      165.8150  122.5010  183.1170 H     302  TI4302      0.0271
     32 H153      164.8110  123.2650  184.3620 H     302  TI4302      0.0271
     33 H163      166.8650  122.0190  187.2280 H     302  TI4302      0.0429
     34 H162      165.4270  122.9910  186.8050 H     302  TI4302      0.0429
@<TRIPOS>BOND
     1    26    11    1
     2    31    15    1
     3    24    10    1
     4    25    11    1
     5    11    10    1
     6    11    12    1
     7    28    13    1
     8    10    15    1
     9    10     9    1
    10    15    32    1
    11    15    14    1
    12    27    12    1
    13    13    12    1
    14    13    14    1
    15    13    29    1
    16    12     7    1
    17    14    30    1
    18    14    16    1
    19     9    22    1
    20     9    23    1
    21     9     8    1
    22    21     7    1
    23     7     8    1
    24     7     5    1
    25     8    16    1
    26    16    34    1
    27    16    33    1
    28     5     6   ar
    29     5     4   ar
    30    20     6    1
    31    19     4    1
    32     6     1   ar
    33     4     3   ar
    34     1    17    1
    35     1     2   ar
    36     3     2   ar
    37     2    18    1
