@<TRIPOS>MOLECULE
5KXI_NCT_D402
 12 13 0 0 0
SMALL
GASTEIGER

@<TRIPOS>ATOM
      1 N         170.3230  123.6840  188.8280 N.ar    1  UNL1       -0.2426
      2 C         169.5460  123.5170  187.7290 C.ar    1  UNL1        0.0959
      3 C         169.0280  122.2700  187.3330 C.ar    1  UNL1        0.0114
      4 C         169.3580  121.1700  188.1230 C.ar    1  UNL1        0.0002
      5 C         170.1600  121.3150  189.2560 C.ar    1  UNL1        0.0204
      6 C         170.6280  122.5930  189.5730 C.ar    1  UNL1        0.0989
      7 N         167.1400  123.2550  186.1090 N.3     1  UNL1       -0.2691
      8 C         168.1670  122.1450  186.1080 C.3     1  UNL1        0.0817
      9 C         168.8230  122.3870  184.7870 C.3     1  UNL1        0.0220
     10 C         167.7630  122.8660  183.8280 C.3     1  UNL1        0.0191
     11 C         166.7680  123.5760  184.7010 C.3     1  UNL1        0.0724
     12 C         166.0000  122.5580  186.6830 C.3     1  UNL1        0.0899
@<TRIPOS>BOND
     1     2     1   ar
     2     3     2   ar
     3     4     3   ar
     4     5     4   ar
     5     6     5   ar
     6     6     1   ar
     7     8     7    1
     8     8     3    1
     9     9     8    1
    10    10     9    1
    11    11    10    1
    12    11     7    1
    13    12     7    1
