@<TRIPOS>MOLECULE
5O8T_SY9_E601
 25 31 0 0 0
SMALL
GASTEIGER

@<TRIPOS>ATOM
      1 C         167.3300  122.5540  184.7750 C.3     1  UNL1        0.0634
      2 C         166.1720  121.7840  184.1640 C.3     1  UNL1        0.0205
      3 C         165.5570  122.6310  183.0400 C.3     1  UNL1        0.0247
      4 C         166.5930  122.6160  181.9120 C.3     1  UNL1        0.0504
      5 C         167.9200  123.2480  182.3280 C.3     1  UNL1        0.0873
      6 N         168.9510  122.6860  181.4180 N.am    1  UNL1       -0.2601
      7 C         169.8670  121.8990  182.1610 C.ar    1  UNL1        0.0498
      8 C         170.9570  121.1620  181.7060 C.ar    1  UNL1        0.0146
      9 C         171.6750  120.4090  182.6220 C.ar    1  UNL1        0.0013
     10 C         171.3210  120.4030  183.9650 C.ar    1  UNL1       -0.0002
     11 C         170.2420  121.1500  184.4140 C.ar    1  UNL1       -0.0030
     12 C         169.5200  121.9150  183.5080 C.ar    1  UNL1       -0.0062
     13 C         168.4450  122.9350  183.7660 C.3     1  UNL1        0.0520
     14 C         169.0260  124.1950  184.4350 C.3     1  UNL1        0.0243
     15 C         167.7940  124.9190  184.9420 C.3     1  UNL1        0.0728
     16 N         166.8710  123.8470  185.3690 N.3     1  UNL1       -0.2702
     17 C         165.4730  124.1660  185.0460 C.3     1  UNL1        0.0946
     18 C         165.2290  124.0130  183.5680 C.2     1  UNL1       -0.0303
     19 C         164.8180  125.0040  182.7930 C.2     1  UNL1       -0.0015
     20 C         164.5890  124.8440  181.3190 C.3     1  UNL1        0.1677
     21 O         165.8130  124.5870  180.6110 O.3     1  UNL1       -0.3509
     22 C         166.2050  123.2120  180.5590 C.3     1  UNL1        0.1266
     23 C         167.4030  123.1880  179.5960 C.3     1  UNL1        0.1151
     24 C         168.7000  122.5870  180.0760 C.2     1  UNL1        0.2318
     25 O         169.4880  122.0820  179.2930 O.2     1  UNL1       -0.2744
@<TRIPOS>BOND
     1     1     2    1
     2     3     2    1
     3     4     3    1
     4     5     4    1
     5     5     6    1
     6     7     6    1
     7     8     7   ar
     8     9     8   ar
     9    10     9   ar
    10    11    10   ar
    11    12    11   ar
    12    12     7   ar
    13    13     5    1
    14    13     1    1
    15    13    12    1
    16    13    14    1
    17    15    14    1
    18    16    15    1
    19    16     1    1
    20    17    16    1
    21    18    17    1
    22    18     3    1
    23    19    18    2
    24    20    19    1
    25    21    20    1
    26    22    21    1
    27     4    22    1
    28    22    23    1
    29    24    23    1
    30    24     6   am
    31    25    24    2
