@<TRIPOS>MOLECULE
5OA0_SY9_D601
 25 31 0 0 0
SMALL
GASTEIGER

@<TRIPOS>ATOM
      1 C         168.1320  122.6880  185.7730 C.3     1  UNL1        0.0634
      2 C         167.2530  121.5900  185.1950 C.3     1  UNL1        0.0205
      3 C         166.2450  122.2360  184.2370 C.3     1  UNL1        0.0247
      4 C         167.0660  122.7020  183.0250 C.3     1  UNL1        0.0504
      5 C         168.1220  123.7430  183.3970 C.3     1  UNL1        0.0873
      6 N         169.1570  123.6860  182.3280 N.am    1  UNL1       -0.2601
      7 C         170.3610  123.1810  182.8620 C.ar    1  UNL1        0.0498
      8 C         171.5360  122.8660  182.1930 C.ar    1  UNL1        0.0146
      9 C         172.5850  122.3310  182.9240 C.ar    1  UNL1        0.0013
     10 C         172.4620  122.1270  184.2930 C.ar    1  UNL1       -0.0002
     11 C         171.2910  122.4610  184.9550 C.ar    1  UNL1       -0.0030
     12 C         170.2340  122.9920  184.2340 C.ar    1  UNL1       -0.0062
     13 C         168.9110  123.5110  184.7250 C.3     1  UNL1        0.0520
     14 C         169.1070  124.8200  185.5030 C.3     1  UNL1        0.0243
     15 C         167.7530  125.0400  186.1410 C.3     1  UNL1        0.0728
     16 N         167.3270  123.6960  186.5370 N.3     1  UNL1       -0.2702
     17 C         165.8720  123.5100  186.3950 C.3     1  UNL1        0.0946
     18 C         165.4790  123.3470  184.9550 C.2     1  UNL1       -0.0303
     19 C         164.6120  124.1440  184.3450 C.2     1  UNL1       -0.0015
     20 C         164.3140  124.0600  182.8770 C.3     1  UNL1        0.1677
     21 O         165.4800  124.3520  182.0850 O.3     1  UNL1       -0.3509
     22 C         166.3210  123.2270  181.8120 C.3     1  UNL1        0.1266
     23 C         167.3050  123.7210  180.7520 C.3     1  UNL1        0.1151
     24 C         168.7770  123.5810  181.0260 C.2     1  UNL1        0.2318
     25 O         169.5680  123.3700  180.1320 O.2     1  UNL1       -0.2744
@<TRIPOS>BOND
     1     1     2    1
     2     3     2    1
     3     4     3    1
     4     5     4    1
     5     5     6    1
     6     7     6    1
     7     8     7   ar
     8     9     8   ar
     9    10     9   ar
    10    11    10   ar
    11    12    11   ar
    12    12     7   ar
    13    13     5    1
    14    13     1    1
    15    13    12    1
    16    13    14    1
    17    15    14    1
    18    16    15    1
    19    16     1    1
    20    17    16    1
    21    18     3    1
    22    18    17    1
    23    19    18    2
    24    20    19    1
    25    21    20    1
    26    22    21    1
    27     4    22    1
    28    22    23    1
    29    24    23    1
    30    24     6   am
    31    25    24    2
