@<TRIPOS>MOLECULE
5TVC_7LB_E302
 20 21 0 0 0
SMALL
GASTEIGER

@<TRIPOS>ATOM
      1 C         164.7830  123.8050  185.5090 C.3     1  UNL1        0.1074
      2 C         168.1820  123.8700  183.9460 C.3     1  UNL1        0.0434
      3 C         169.0630  123.5970  185.1630 C.2     1  UNL1       -0.0246
      4 C         172.1690  122.5680  188.9710 C.ar    1  UNL1        0.1362
      5 C         169.1580  122.3780  186.0710 C.2     1  UNL1       -0.0029
      6 C         170.0990  122.4850  187.1180 C.ar    1  UNL1        0.0219
      7 C         170.5730  121.3430  187.7290 C.ar    1  UNL1        0.0406
      8 C         171.7130  121.3240  188.5290 C.ar    1  UNL1        0.1644
      9 C         170.7230  123.6950  187.4370 C.ar    1  UNL1        0.0990
     10 N         166.2250  124.0110  185.3940 N.3     1  UNL1       -0.2176
     11 C         166.1060  124.5200  183.0450 C.3     1  UNL1        0.0192
     12 C         171.6700  119.0460  189.5440 C.ar    1  UNL1        0.1454
     13 C         172.5590  118.0700  190.0490 C.ar    1  UNL1        0.0375
     14 C         172.1380  116.7480  190.2880 C.ar    1  UNL1        0.0031
     15 C         170.8390  116.3770  189.9110 C.ar    1  UNL1        0.0002
     16 C         169.9940  117.3090  189.3270 C.ar    1  UNL1        0.0031
     17 C         166.7150  123.5630  184.0900 C.3     1  UNL1        0.0772
     18 C         170.4490  118.5960  189.0530 C.ar    1  UNL1        0.0375
     19 N         171.7040  123.7570  188.4140 N.ar    1  UNL1       -0.2391
     20 O         172.2170  120.3010  189.2920 O.3     1  UNL1       -0.4519
@<TRIPOS>BOND
     1     3     2    1
     2     5     3    2
     3     6     5    1
     4     7     6   ar
     5     8     7   ar
     6     8     4   ar
     7     9     6   ar
     8    10     1    1
     9    13    12   ar
    10    14    13   ar
    11    15    14   ar
    12    16    15   ar
    13    17    11    1
    14    17     2    1
    15    17    10    1
    16    18    16   ar
    17    18    12   ar
    18    19     9   ar
    19    19     4   ar
    20    20    12    1
    21    20     8    1
