@<TRIPOS>MOLECULE
5Y2Q_8L3_A301
 23 25 0 0 0
SMALL
GASTEIGER

@<TRIPOS>ATOM
      1 C         166.2310  124.3630  184.5510 C.3     1  UNL1        0.0888
      2 C         165.5730  123.0240  186.4590 C.3     1  UNL1        0.0888
      3 C         166.2340  121.8010  185.8600 C.3     1  UNL1        0.0228
      4 C         167.4090  122.2400  185.0040 C.3     1  UNL1        0.0472
      5 C         168.4720  122.9740  185.8440 C.3     1  UNL1        0.2057
      6 C         170.0440  122.5330  187.5870 C.ar    1  UNL1        0.1576
      7 C         170.6450  121.6790  188.5020 C.ar    1  UNL1        0.0401
      8 C         171.7330  122.0790  189.2760 C.ar    1  UNL1        0.0238
      9 C         172.2550  123.3560  189.1350 C.ar    1  UNL1        0.0991
     10 C         170.5820  123.8060  187.4220 C.ar    1  UNL1        0.1356
     11 C         168.0810  120.9990  184.3920 C.3     1  UNL1        0.0300
     12 C         169.1990  121.1160  183.5560 C.ar    1  UNL1       -0.0212
     13 C         169.0840  121.4140  182.2000 C.ar    1  UNL1       -0.0033
     14 C         170.2130  121.4700  181.3870 C.ar    1  UNL1        0.0119
     15 C         171.4660  121.2020  181.9250 C.ar    1  UNL1        0.0682
     16 C         171.5850  120.8760  183.2800 C.ar    1  UNL1        0.0679
     17 C         170.4490  120.8260  184.0770 C.ar    1  UNL1        0.0080
     18 C         166.8950  123.1600  183.9170 C.3     1  UNL1        0.0228
     19 N         165.0960  123.9240  185.4010 N.3     1  UNL1       -0.2180
     20 N         171.6710  124.2240  188.2160 N.ar    1  UNL1       -0.2391
     21 O         168.9920  122.0710  186.8310 O.3     1  UNL1       -0.4739
     22 CL        172.8110  121.2850  180.8970 Cl      1  UNL1       -0.0814
     23 CL        173.1370  120.5200  184.0220 Cl      1  UNL1       -0.0814
@<TRIPOS>BOND
     1     3     2    1
     2     4     3    1
     3     4     5    1
     4     7     6   ar
     5     8     7   ar
     6     9     8   ar
     7    10     6   ar
     8    11     4    1
     9    12    11    1
    10    13    12   ar
    11    14    13   ar
    12    15    14   ar
    13    16    15   ar
    14    17    16   ar
    15    17    12   ar
    16    18     4    1
    17    18     1    1
    18    19     1    1
    19    19     2    1
    20    20    10   ar
    21    20     9   ar
    22    21     5    1
    23    21     6    1
    24    22    15    1
    25    23    16    1
