@<TRIPOS>MOLECULE
6SH0_4P0_J302
 12 13 0 0 0
SMALL
GASTEIGER

@<TRIPOS>ATOM
      1 C         170.5760  123.0540  187.8220 C.2     1  UNL1        0.1705
      2 C         171.0390  121.9320  188.7020 C.3     1  UNL1        0.0769
      3 O         171.0160  124.1890  187.9980 O.2     1  UNL1       -0.2916
      4 C         167.2900  123.7800  184.8640 C.3     1  UNL1        0.0735
      5 C         168.1730  123.4180  183.6720 C.3     1  UNL1        0.0192
      6 C         169.5960  123.2580  184.2410 C.3     1  UNL1        0.0234
      7 C         169.5180  123.8690  185.6530 C.3     1  UNL1        0.0973
      8 C         169.5790  122.8010  186.7530 C.2     1  UNL1        0.0240
      9 C         166.6740  122.5970  185.6400 C.3     1  UNL1        0.0220
     10 C         167.6000  121.4080  185.8960 C.3     1  UNL1        0.0273
     11 C         168.7460  121.7560  186.7980 C.2     1  UNL1       -0.0262
     12 N         168.2170  124.5320  185.7230 N.3     1  UNL1       -0.2164
@<TRIPOS>BOND
     1     2     1    1
     2     3     1    2
     3     4     5    1
     4     6     5    1
     5     7     6    1
     6     8     7    1
     7     8     1    1
     8     9     4    1
     9    10     9    1
    10    11    10    1
    11    11     8    2
    12    12     4    1
    13    12     7    1
