@<TRIPOS>MOLECULE
6SH0_4P0_E303
 12 13 0 0 0
SMALL
GASTEIGER

@<TRIPOS>ATOM
      1 C         170.1790  123.3740  187.4380 C.2     1  UNL1        0.1705
      2 C         170.4480  122.2520  188.3950 C.3     1  UNL1        0.0769
      3 O         170.6860  124.4800  187.6300 O.2     1  UNL1       -0.2916
      4 C         167.2930  124.1940  184.1120 C.3     1  UNL1        0.0735
      5 C         168.2710  123.7720  183.0280 C.3     1  UNL1        0.0192
      6 C         169.6130  123.5410  183.7530 C.3     1  UNL1        0.0234
      7 C         169.4210  124.1890  185.1370 C.3     1  UNL1        0.0973
      8 C         169.3020  123.1540  186.2610 C.2     1  UNL1        0.0240
      9 C         166.5440  123.0510  184.8390 C.3     1  UNL1        0.0220
     10 C         167.3780  121.8240  185.2040 C.3     1  UNL1        0.0273
     11 C         168.4190  122.1480  186.2320 C.2     1  UNL1       -0.0262
     12 N         168.1610  124.9250  185.0440 N.3     1  UNL1       -0.2164
@<TRIPOS>BOND
     1     2     1    1
     2     3     1    2
     3     4     5    1
     4     6     5    1
     5     7     6    1
     6     8     7    1
     7     8     1    1
     8     9     4    1
     9    10     9    1
    10    11    10    1
    11    11     8    2
    12    12     4    1
    13    12     7    1
