@<TRIPOS>MOLECULE
6UR8_QMR_A702
 16 19 0 0 0
SMALL
GASTEIGER

@<TRIPOS>ATOM
      1 C         167.5240  121.0660  184.9500 C.3     1  UNL1        0.0930
      2 N         166.4800  121.5160  186.0330 N.3     1  UNL1       -0.2174
      3 C         166.3620  123.0780  186.1150 C.3     1  UNL1        0.0930
      4 C         167.6240  123.7920  185.5400 C.3     1  UNL1        0.0398
      5 C         167.9810  123.3040  184.4710 C.3     1  UNL1        0.0116
      6 C         168.5230  122.2120  184.6010 C.3     1  UNL1        0.0398
      7 C         169.6180  122.3360  185.9270 C.ar    1  UNL1       -0.0234
      8 C         170.7000  121.7870  186.4420 C.ar    1  UNL1        0.0161
      9 C         171.2550  122.3180  187.6780 C.ar    1  UNL1        0.0986
     10 N         172.3390  121.7770  188.1940 N.ar    1  UNL1       -0.2407
     11 C         172.8590  122.2480  189.3270 C.ar    1  UNL1        0.1195
     12 C         172.2420  123.3430  189.9890 C.ar    1  UNL1        0.1195
     13 N         171.1440  123.8940  189.4710 N.ar    1  UNL1       -0.2407
     14 C         170.6270  123.4270  188.3490 C.ar    1  UNL1        0.0986
     15 C         169.4290  124.0350  187.7870 C.ar    1  UNL1        0.0161
     16 C         168.9200  123.5600  186.6600 C.ar    1  UNL1       -0.0234
@<TRIPOS>BOND
     1     2     1    1
     2     3     2    1
     3     4     3    1
     4     5     4    1
     5     6     5    1
     6     6     1    1
     7     7     6    1
     8     8     7   ar
     9     9     8   ar
    10    10     9   ar
    11    11    10   ar
    12    12    11   ar
    13    13    12   ar
    14    14    13   ar
    15    14     9   ar
    16    15    14   ar
    17    16     4    1
    18    16    15   ar
    19    16     7   ar
