@<TRIPOS>MOLECULE
8SSZ_ACH_A704
 26 25 0 0 0
SMALL
GASTEIGER

@<TRIPOS>ATOM
      1 N         167.3120  123.0220  185.2120 N.4     1  UNL1        0.2393
      2 C         168.6860  123.6460  185.0550 C.3     1  UNL1        0.0042
      3 C         169.4280  123.9980  186.3250 C.3     1  UNL1        0.1320
      4 O         169.6910  122.8270  187.1450 O.3     1  UNL1       -0.4594
      5 C         170.6170  122.9620  188.1020 C.2     1  UNL1        0.3041
      6 O         171.2170  123.9790  188.2830 O.2     1  UNL1       -0.2512
      7 C         170.7930  121.7030  188.8760 C.3     1  UNL1        0.0332
      8 C         166.7640  122.7180  183.8550 C.3     1  UNL1       -0.0417
      9 C         167.4130  121.7450  185.9820 C.3     1  UNL1       -0.0417
     10 C         166.3600  123.9390  185.9150 C.3     1  UNL1       -0.0417
     11 H         168.5510  124.4580  184.5240 H       1  UNL1        0.0849
     12 H         169.2130  123.0100  184.5300 H       1  UNL1        0.0849
     13 H         170.2690  124.4510  186.1140 H       1  UNL1        0.0752
     14 H         168.8810  124.6150  186.8500 H       1  UNL1        0.0752
     15 H         170.7890  121.9100  189.8330 H       1  UNL1        0.0342
     16 H         171.6520  121.2920  188.6470 H       1  UNL1        0.0342
     17 H         170.0550  121.0880  188.6860 H       1  UNL1        0.0342
     18 H         166.9080  123.4980  183.2810 H       1  UNL1        0.0778
     19 H         165.8080  122.5280  183.9430 H       1  UNL1        0.0778
     20 H         167.2240  121.9330  183.4950 H       1  UNL1        0.0778
     21 H         167.4160  121.9630  186.9370 H       1  UNL1        0.0778
     22 H         168.2460  121.2940  185.7340 H       1  UNL1        0.0778
     23 H         166.6410  121.1870  185.7590 H       1  UNL1        0.0778
     24 H         166.0360  124.6040  185.2730 H       1  UNL1        0.0778
     25 H         166.8220  124.3960  186.6440 H       1  UNL1        0.0778
     26 H         165.6220  123.4020  186.2680 H       1  UNL1        0.0778
@<TRIPOS>UNITY_ATOM_ATTR
1 1
charge 1
@<TRIPOS>BOND
     1     1     2    1
     2     3     2    1
     3     4     3    1
     4     5     4    1
     5     6     5    2
     6     7     5    1
     7     8     1    1
     8     9     1    1
     9    10     1    1
    10     2    11    1
    11    12     2    1
    12     3    13    1
    13    14     3    1
    14     7    15    1
    15    16     7    1
    16    17     7    1
    17     8    18    1
    18    19     8    1
    19    20     8    1
    20     9    21    1
    21    22     9    1
    22    23     9    1
    23    10    24    1
    24    25    10    1
    25    26    10    1
