@<TRIPOS>MOLECULE
8SSZ_ACH_D704
 26 25 0 0 0
SMALL
GASTEIGER

@<TRIPOS>ATOM
      1 N         167.2840  123.0680  185.2450 N.4     1  UNL1        0.2393
      2 C         168.6600  123.6840  185.0760 C.3     1  UNL1        0.0042
      3 C         169.4140  124.0200  186.3400 C.3     1  UNL1        0.1320
      4 O         169.6950  122.8220  187.1070 O.3     1  UNL1       -0.4594
      5 C         170.4930  122.9590  188.1680 C.2     1  UNL1        0.3041
      6 O         170.9820  124.0020  188.4780 O.2     1  UNL1       -0.2512
      7 C         170.6920  121.6650  188.8750 C.3     1  UNL1        0.0332
      8 C         166.7940  122.6390  183.9010 C.3     1  UNL1       -0.0417
      9 C         167.3380  121.8700  186.1390 C.3     1  UNL1       -0.0417
     10 C         166.3150  124.0530  185.8140 C.3     1  UNL1       -0.0417
     11 H         168.5240  124.4980  184.5500 H       1  UNL1        0.0849
     12 H         169.1760  123.0440  184.5420 H       1  UNL1        0.0849
     13 H         170.2450  124.4960  186.1360 H       1  UNL1        0.0752
     14 H         168.8550  124.6040  186.8900 H       1  UNL1        0.0752
     15 H         170.7110  121.8220  189.8410 H       1  UNL1        0.0342
     16 H         171.5450  121.2670  188.6040 H       1  UNL1        0.0342
     17 H         169.9500  121.0590  188.6730 H       1  UNL1        0.0342
     18 H         166.9820  123.3550  183.2590 H       1  UNL1        0.0778
     19 H         165.8310  122.4760  183.9610 H       1  UNL1        0.0778
     20 H         167.2530  121.8130  183.6420 H       1  UNL1        0.0778
     21 H         167.3470  122.1770  187.0680 H       1  UNL1        0.0778
     22 H         168.1530  121.3660  185.9370 H       1  UNL1        0.0778
     23 H         166.5470  121.3200  185.9650 H       1  UNL1        0.0778
     24 H         166.0240  124.6590  185.1030 H       1  UNL1        0.0778
     25 H         166.7580  124.5670  186.5180 H       1  UNL1        0.0778
     26 H         165.5580  123.5560  186.1870 H       1  UNL1        0.0778
@<TRIPOS>UNITY_ATOM_ATTR
1 1
charge 1
@<TRIPOS>BOND
     1     1     2    1
     2     3     2    1
     3     4     3    1
     4     5     4    1
     5     6     5    2
     6     7     5    1
     7     8     1    1
     8     9     1    1
     9    10     1    1
    10     2    11    1
    11    12     2    1
    12     3    13    1
    13    14     3    1
    14     7    15    1
    15    16     7    1
    16    17     7    1
    17     8    18    1
    18    19     8    1
    19    20     8    1
    20     9    21    1
    21    22     9    1
    22    23     9    1
    23    10    24    1
    24    25    10    1
    25    26    10    1
