@<TRIPOS>MOLECULE
8ST0_ACH_D702
 26 25 0 0 0
SMALL
GASTEIGER

@<TRIPOS>ATOM
      1 N         167.3760  122.9940  185.2550 N.4     1  UNL1        0.2393
      2 C         168.7650  123.5720  185.0750 C.3     1  UNL1        0.0042
      3 C         169.5280  123.9110  186.3310 C.3     1  UNL1        0.1320
      4 O         169.9150  122.7270  187.0760 O.3     1  UNL1       -0.4594
      5 C         170.5000  122.9490  188.2530 C.2     1  UNL1        0.3041
      6 O         170.7020  124.0490  188.6710 O.2     1  UNL1       -0.2512
      7 C         170.8550  121.6800  188.9440 C.3     1  UNL1        0.0332
      8 C         166.8660  122.5880  183.9090 C.3     1  UNL1       -0.0417
      9 C         167.4140  121.7900  186.1400 C.3     1  UNL1       -0.0417
     10 C         166.4390  124.0010  185.8430 C.3     1  UNL1       -0.0417
     11 H         168.6450  124.3850  184.5420 H       1  UNL1        0.0849
     12 H         169.2650  122.9170  184.5470 H       1  UNL1        0.0849
     13 H         170.3210  124.4450  186.1190 H       1  UNL1        0.0752
     14 H         168.9530  124.4490  186.9110 H       1  UNL1        0.0752
     15 H         170.9440  121.8500  189.9030 H       1  UNL1        0.0342
     16 H         171.7100  121.3440  188.6040 H       1  UNL1        0.0342
     17 H         170.1460  121.0190  188.8100 H       1  UNL1        0.0342
     18 H         167.0470  123.3140  183.2780 H       1  UNL1        0.0778
     19 H         165.9020  122.4280  183.9780 H       1  UNL1        0.0778
     20 H         167.3170  121.7650  183.6310 H       1  UNL1        0.0778
     21 H         167.4350  122.0900  187.0720 H       1  UNL1        0.0778
     22 H         168.2180  121.2740  185.9280 H       1  UNL1        0.0778
     23 H         166.6120  121.2560  185.9680 H       1  UNL1        0.0778
     24 H         166.1690  124.6300  185.1420 H       1  UNL1        0.0778
     25 H         166.8920  124.4910  186.5580 H       1  UNL1        0.0778
     26 H         165.6650  123.5210  186.2020 H       1  UNL1        0.0778
@<TRIPOS>UNITY_ATOM_ATTR
1 1
charge 1
@<TRIPOS>BOND
     1     1     2    1
     2     3     2    1
     3     4     3    1
     4     5     4    1
     5     6     5    2
     6     7     5    1
     7     8     1    1
     8     9     1    1
     9    10     1    1
    10     2    11    1
    11    12     2    1
    12     3    13    1
    13    14     3    1
    14     7    15    1
    15    16     7    1
    16    17     7    1
    17     8    18    1
    18    19     8    1
    19    20     8    1
    20     9    21    1
    21    22     9    1
    22    23     9    1
    23    10    24    1
    24    25    10    1
    25    26    10    1
