@<TRIPOS>MOLECULE
8ST1_ACH_D703
 26 25 0 0 0
SMALL
GASTEIGER

@<TRIPOS>ATOM
      1 N         167.3770  122.9340  185.3210 N.4     1  UNL1        0.2393
      2 C         168.8070  123.3860  185.1730 C.3     1  UNL1        0.0042
      3 C         169.5480  123.6950  186.4490 C.3     1  UNL1        0.1320
      4 O         169.8900  122.4760  187.1570 O.3     1  UNL1       -0.4594
      5 C         170.6770  122.6180  188.2270 C.2     1  UNL1        0.3041
      6 O         171.0890  123.6790  188.5890 O.2     1  UNL1       -0.2512
      7 C         170.9600  121.3100  188.8760 C.3     1  UNL1        0.0332
      8 C         166.8820  122.4640  183.9930 C.3     1  UNL1       -0.0417
      9 C         167.2970  121.8030  186.2940 C.3     1  UNL1       -0.0417
     10 C         166.4950  124.0430  185.7950 C.3     1  UNL1       -0.0417
     11 H         168.7790  124.1860  184.6100 H       1  UNL1        0.0849
     12 H         169.2660  122.6700  184.6890 H       1  UNL1        0.0849
     13 H         170.3560  124.2170  186.2660 H       1  UNL1        0.0752
     14 H         168.9690  124.2250  187.0310 H       1  UNL1        0.0752
     15 H         170.5910  121.3130  189.7840 H       1  UNL1        0.0342
     16 H         171.9280  121.1690  188.9300 H       1  UNL1        0.0342
     17 H         170.5330  120.5900  188.3690 H       1  UNL1        0.0342
     18 H         167.0930  123.1490  183.3260 H       1  UNL1        0.0778
     19 H         165.9150  122.3320  184.0540 H       1  UNL1        0.0778
     20 H         167.3190  121.6170  183.7700 H       1  UNL1        0.0778
     21 H         167.3640  122.1680  187.2000 H       1  UNL1        0.0778
     22 H         168.0380  121.1870  186.1170 H       1  UNL1        0.0778
     23 H         166.4390  121.3490  186.1670 H       1  UNL1        0.0778
     24 H         166.1760  124.5480  185.0180 H       1  UNL1        0.0778
     25 H         167.0100  124.6380  186.3740 H       1  UNL1        0.0778
     26 H         165.7490  123.6510  186.2930 H       1  UNL1        0.0778
@<TRIPOS>UNITY_ATOM_ATTR
1 1
charge 1
@<TRIPOS>BOND
     1     1     2    1
     2     3     2    1
     3     4     3    1
     4     5     4    1
     5     6     5    2
     6     7     5    1
     7     8     1    1
     8     9     1    1
     9    10     1    1
    10     2    11    1
    11    12     2    1
    12     3    13    1
    13    14     3    1
    14     7    15    1
    15    16     7    1
    16    17     7    1
    17     8    18    1
    18    19     8    1
    19    20     8    1
    20     9    21    1
    21    22     9    1
    22    23     9    1
    23    10    24    1
    24    25    10    1
    25    26    10    1
