@<TRIPOS>MOLECULE
8ST1_ACH_B703
 26 25 0 0 0
SMALL
GASTEIGER

@<TRIPOS>ATOM
      1 N         167.3640  123.0400  185.2980 N.4     1  UNL1        0.2393
      2 C         168.7460  123.6410  185.3650 C.3     1  UNL1        0.0042
      3 C         169.3130  123.8720  186.7450 C.3     1  UNL1        0.1320
      4 O         169.6990  122.6180  187.3670 O.3     1  UNL1       -0.4594
      5 C         170.6390  122.6880  188.3160 C.2     1  UNL1        0.3041
      6 O         171.1520  123.7180  188.6470 O.2     1  UNL1       -0.2512
      7 C         170.9450  121.3460  188.8810 C.3     1  UNL1        0.0332
      8 C         167.0550  122.7020  183.8770 C.3     1  UNL1       -0.0417
      9 C         167.3090  121.7900  186.1150 C.3     1  UNL1       -0.0417
     10 C         166.3300  123.9930  185.8000 C.3     1  UNL1       -0.0417
     11 H         168.6940  124.4930  184.8870 H       1  UNL1        0.0849
     12 H         169.3280  123.0310  184.8680 H       1  UNL1        0.0849
     13 H         170.0750  124.4860  186.7060 H       1  UNL1        0.0752
     14 H         168.6210  124.2790  187.3040 H       1  UNL1        0.0752
     15 H         170.6590  121.3160  189.8180 H       1  UNL1        0.0342
     16 H         171.9090  121.1790  188.8430 H       1  UNL1        0.0342
     17 H         170.4550  120.6590  188.3860 H       1  UNL1        0.0342
     18 H         167.1820  123.5080  183.3380 H       1  UNL1        0.0778
     19 H         166.1250  122.4000  183.8280 H       1  UNL1        0.0778
     20 H         167.6510  121.9860  183.5800 H       1  UNL1        0.0778
     21 H         167.2980  122.0370  187.0620 H       1  UNL1        0.0778
     22 H         168.0990  121.2500  185.9130 H       1  UNL1        0.0778
     23 H         166.4940  121.3020  185.8780 H       1  UNL1        0.0778
     24 H         165.8600  124.3830  185.0340 H       1  UNL1        0.0778
     25 H         166.7740  124.7080  186.2980 H       1  UNL1        0.0778
     26 H         165.7150  123.5050  186.3830 H       1  UNL1        0.0778
@<TRIPOS>UNITY_ATOM_ATTR
1 1
charge 1
@<TRIPOS>BOND
     1     1     2    1
     2     3     2    1
     3     4     3    1
     4     5     4    1
     5     6     5    2
     6     7     5    1
     7     8     1    1
     8     9     1    1
     9    10     1    1
    10     2    11    1
    11    12     2    1
    12     3    13    1
    13    14     3    1
    14     7    15    1
    15    16     7    1
    16    17     7    1
    17     8    18    1
    18    19     8    1
    19    20     8    1
    20     9    21    1
    21    22     9    1
    22    23     9    1
    23    10    24    1
    24    25    10    1
    25    26    10    1
