@<TRIPOS>MOLECULE
8ST2_ACH_D704
 26 25 0 0 0
SMALL
GASTEIGER

@<TRIPOS>ATOM
      1 N         167.4310  123.1040  185.1990 N.4     1  UNL1        0.2393
      2 C         168.8010  123.7380  185.2010 C.3     1  UNL1        0.0042
      3 C         169.4550  123.9260  186.5490 C.3     1  UNL1        0.1320
      4 O         169.8120  122.6570  187.1560 O.3     1  UNL1       -0.4594
      5 C         170.5880  122.7260  188.2390 C.2     1  UNL1        0.3041
      6 O         170.9760  123.7620  188.6880 O.2     1  UNL1       -0.2512
      7 C         170.8890  121.3760  188.7880 C.3     1  UNL1        0.0332
      8 C         167.0260  122.8620  183.7820 C.3     1  UNL1       -0.0417
      9 C         167.4630  121.7980  185.9210 C.3     1  UNL1       -0.0417
     10 C         166.4110  123.9880  185.8420 C.3     1  UNL1       -0.0417
     11 H         168.6940  124.6090  184.7670 H       1  UNL1        0.0849
     12 H         169.3620  123.1690  184.6370 H       1  UNL1        0.0849
     13 H         170.2500  124.4930  186.4700 H       1  UNL1        0.0752
     14 H         168.8250  124.3740  187.1470 H       1  UNL1        0.0752
     15 H         170.5360  121.3130  189.7000 H       1  UNL1        0.0342
     16 H         171.8570  121.2350  188.8150 H       1  UNL1        0.0342
     17 H         170.4540  120.6920  188.2410 H       1  UNL1        0.0342
     18 H         167.0980  123.7090  183.2960 H       1  UNL1        0.0778
     19 H         166.1000  122.5430  183.7760 H       1  UNL1        0.0778
     20 H         167.6130  122.1840  183.3900 H       1  UNL1        0.0778
     21 H         167.4390  121.9740  186.8830 H       1  UNL1        0.0778
     22 H         168.2890  121.3300  185.6810 H       1  UNL1        0.0778
     23 H         166.6830  121.2740  185.6470 H       1  UNL1        0.0778
     24 H         165.9880  124.5390  185.1520 H       1  UNL1        0.0778
     25 H         166.8500  124.5730  186.4910 H       1  UNL1        0.0778
     26 H         165.7530  123.4210  186.2930 H       1  UNL1        0.0778
@<TRIPOS>UNITY_ATOM_ATTR
1 1
charge 1
@<TRIPOS>BOND
     1     1     2    1
     2     3     2    1
     3     4     3    1
     4     5     4    1
     5     6     5    2
     6     7     5    1
     7     8     1    1
     8     9     1    1
     9    10     1    1
    10     2    11    1
    11    12     2    1
    12     3    13    1
    13    14     3    1
    14     7    15    1
    15    16     7    1
    16    17     7    1
    17     8    18    1
    18    19     8    1
    19    20     8    1
    20     9    21    1
    21    22     9    1
    22    23     9    1
    23    10    24    1
    24    25    10    1
    25    26    10    1
