@<TRIPOS>MOLECULE
9SG3_PHN_A302
 14 16 0 0 0
SMALL
GASTEIGER

@<TRIPOS>ATOM
      1 N         167.9190  123.4230  186.6640 N.ar    1  UNL1       -0.2423
      2 C         167.1770  124.2310  185.9430 C.ar    1  UNL1        0.0989
      3 C         167.0320  124.1130  184.5550 C.ar    1  UNL1        0.0207
      4 C         167.7050  123.1030  183.9190 C.ar    1  UNL1        0.0031
      5 C         168.5020  122.2210  184.6650 C.ar    1  UNL1        0.0192
      6 C         169.2220  121.1490  184.0540 C.ar    1  UNL1        0.0016
      7 C         169.9850  120.3170  184.7950 C.ar    1  UNL1        0.0016
      8 C         170.0880  120.4960  186.2080 C.ar    1  UNL1        0.0192
      9 C         170.8710  119.6470  187.0020 C.ar    1  UNL1        0.0031
     10 C         170.9400  119.8680  188.3530 C.ar    1  UNL1        0.0207
     11 C         170.2100  120.9360  188.8910 C.ar    1  UNL1        0.0989
     12 N         169.4650  121.7430  188.1740 N.ar    1  UNL1       -0.2423
     13 C         169.3960  121.5420  186.8510 C.ar    1  UNL1        0.0988
     14 C         168.5780  122.4300  186.0540 C.ar    1  UNL1        0.0988
@<TRIPOS>BOND
     1     2     1   ar
     2     3     2   ar
     3     4     3   ar
     4     5     4   ar
     5     6     5   ar
     6     7     6   ar
     7     8     7   ar
     8     9     8   ar
     9    10     9   ar
    10    11    10   ar
    11    12    11   ar
    12    13    12   ar
    13    13     8   ar
    14    14     5   ar
    15    14     1   ar
    16    14    13   ar
