OSSM_156250
     RDKit          3D

 51 54  0  0  0  0  0  0  0  0999 V2000
    2.4038   -1.9315   -0.1720 C   0  0  0  0  0  0  0  0  0  0  0  0
    3.2728   -1.5902   -1.2103 C   0  0  0  0  0  0  0  0  0  0  0  0
    3.9321   -0.3560   -1.2145 C   0  0  0  0  0  0  0  0  0  0  0  0
    4.7478   -0.1504   -2.2930 O   0  0  0  0  0  0  0  0  0  0  0  0
    5.4872    1.0641   -2.3178 C   0  0  0  0  0  0  0  0  0  0  0  0
    3.7230    0.5385   -0.1622 C   0  0  0  0  0  0  0  0  0  0  0  0
    2.8523    0.2039    0.8797 C   0  0  0  0  0  0  0  0  0  0  0  0
    2.1734   -1.0177    0.8558 C   0  0  0  0  0  0  0  0  0  0  0  0
    1.2965   -1.3628    1.9870 C   0  0  0  0  0  0  0  0  0  0  0  0
    1.8405   -1.6016    3.0694 O   0  0  0  0  0  0  0  0  0  0  0  0
   -0.0914   -1.3893    1.8397 N   0  0  0  0  0  0  0  0  0  0  0  0
   -0.8869   -0.8326    0.7139 C   0  0  0  0  0  0  0  0  0  0  0  0
   -0.4353   -1.5220   -0.4532 O   0  0  0  0  0  0  0  0  0  0  0  0
   -0.6738    0.6875    0.5946 C   0  0  0  0  0  0  0  0  0  0  0  0
   -1.0233    1.5406    1.6613 C   0  0  0  0  0  0  0  0  0  0  0  0
   -0.8421    2.9225    1.5715 C   0  0  0  0  0  0  0  0  0  0  0  0
   -0.3055    3.4818    0.4162 C   0  0  0  0  0  0  0  0  0  0  0  0
    0.0541    2.6607   -0.6480 C   0  0  0  0  0  0  0  0  0  0  0  0
   -0.1265    1.2778   -0.5608 C   0  0  0  0  0  0  0  0  0  0  0  0
   -0.7643   -1.5391    3.0890 N   0  0  0  0  0  0  0  0  0  0  0  0
   -2.0588   -1.9460    3.1733 C   0  0  0  0  0  0  0  0  0  0  0  0
   -2.5664   -2.4121    4.1898 O   0  0  0  0  0  0  0  0  0  0  0  0
   -2.9034   -1.7362    1.9708 C   0  0  0  0  0  0  0  0  0  0  0  0
   -4.2410   -2.0851    2.0800 O   0  0  0  0  0  0  0  0  0  0  0  0
   -2.3712   -1.2001    0.8584 C   0  0  0  0  0  0  0  0  0  0  0  0
   -3.2549   -0.9864   -0.3119 C   0  0  0  0  0  0  0  0  0  0  0  0
   -3.7836    0.2787   -0.5961 C   0  0  0  0  0  0  0  0  0  0  0  0
   -4.5941    0.4690   -1.7172 C   0  0  0  0  0  0  0  0  0  0  0  0
   -4.8900   -0.6036   -2.5567 C   0  0  0  0  0  0  0  0  0  0  0  0
   -4.3823   -1.8700   -2.2737 C   0  0  0  0  0  0  0  0  0  0  0  0
   -3.5712   -2.0625   -1.1543 C   0  0  0  0  0  0  0  0  0  0  0  0
    1.9065   -2.8977   -0.1743 H   0  0  0  0  0  0  0  0  0  0  0  0
    3.4436   -2.2944   -2.0213 H   0  0  0  0  0  0  0  0  0  0  0  0
    6.1633    1.1334   -1.4592 H   0  0  0  0  0  0  0  0  0  0  0  0
    6.0998    1.0640   -3.2245 H   0  0  0  0  0  0  0  0  0  0  0  0
    4.8197    1.9307   -2.3674 H   0  0  0  0  0  0  0  0  0  0  0  0
    4.2221    1.5007   -0.1188 H   0  0  0  0  0  0  0  0  0  0  0  0
    2.6997    0.8977    1.7033 H   0  0  0  0  0  0  0  0  0  0  0  0
   -0.9651   -1.1887   -1.1959 H   0  0  0  0  0  0  0  0  0  0  0  0
   -1.4432    1.1354    2.5802 H   0  0  0  0  0  0  0  0  0  0  0  0
   -1.1193    3.5615    2.4067 H   0  0  0  0  0  0  0  0  0  0  0  0
   -0.1631    4.5572    0.3471 H   0  0  0  0  0  0  0  0  0  0  0  0
    0.4829    3.0947   -1.5481 H   0  0  0  0  0  0  0  0  0  0  0  0
    0.1904    0.6704   -1.4063 H   0  0  0  0  0  0  0  0  0  0  0  0
   -0.1497   -1.7798    3.8685 H   0  0  0  0  0  0  0  0  0  0  0  0
   -4.3408   -2.4328    2.9919 H   0  0  0  0  0  0  0  0  0  0  0  0
   -3.5795    1.1271    0.0528 H   0  0  0  0  0  0  0  0  0  0  0  0
   -5.0015    1.4541   -1.9300 H   0  0  0  0  0  0  0  0  0  0  0  0
   -5.5269   -0.4547   -3.4251 H   0  0  0  0  0  0  0  0  0  0  0  0
   -4.6248   -2.7103   -2.9193 H   0  0  0  0  0  0  0  0  0  0  0  0
   -3.1903   -3.0591   -0.9395 H   0  0  0  0  0  0  0  0  0  0  0  0
  1  2  2  0
  2  3  1  0
  3  4  1  0
  4  5  1  0
  3  6  2  0
  6  7  1  0
  7  8  2  0
  8  9  1  0
  9 10  2  0
  9 11  1  0
 11 12  1  0
 12 13  1  0
 12 14  1  0
 14 15  2  0
 15 16  1  0
 16 17  2  0
 17 18  1  0
 18 19  2  0
 11 20  1  0
 20 21  1  0
 21 22  2  0
 21 23  1  0
 23 24  1  0
 23 25  2  0
 25 26  1  0
 26 27  2  0
 27 28  1  0
 28 29  2  0
 29 30  1  0
 30 31  2  0
  8  1  1  0
 25 12  1  0
 19 14  1  0
 31 26  1  0
  1 32  1  0
  2 33  1  0
  5 34  1  0
  5 35  1  0
  5 36  1  0
  6 37  1  0
  7 38  1  0
 13 39  1  0
 15 40  1  0
 16 41  1  0
 17 42  1  0
 18 43  1  0
 19 44  1  0
 20 45  1  0
 24 46  1  0
 27 47  1  0
 28 48  1  0
 29 49  1  0
 30 50  1  0
 31 51  1  0
M  END
>  <mol_id>  (1) 
OSSM_156250

>  <drugclip_rank>  (1) 
1

>  <conformer>  (1) 
0

>  <align_rmsd>  (1) 
0.908

$$$$
STK683429
     RDKit          3D

 66 70  0  0  0  0  0  0  0  0999 V2000
   -4.8074   -3.0763   -0.4304 C   0  0  0  0  0  0  0  0  0  0  0  0
   -5.6744   -2.4784   -1.3491 C   0  0  0  0  0  0  0  0  0  0  0  0
   -5.2314   -1.4257   -2.1459 C   0  0  0  0  0  0  0  0  0  0  0  0
   -3.9203   -0.9723   -2.0242 C   0  0  0  0  0  0  0  0  0  0  0  0
   -3.0605   -1.5722   -1.1067 C   0  0  0  0  0  0  0  0  0  0  0  0
   -1.8001   -1.1219   -1.0395 F   0  0  0  0  0  0  0  0  0  0  0  0
   -3.4825   -2.6270   -0.2879 C   0  0  0  0  0  0  0  0  0  0  0  0
   -2.5467   -3.3065    0.7171 C   0  0  0  0  0  0  0  0  0  0  0  0
   -2.0513   -2.3406    1.7863 C   0  0  0  0  0  0  0  0  0  0  0  0
   -3.0354   -1.8791    2.8106 C   0  0  0  0  0  0  0  0  0  0  0  0
   -2.7781   -1.0989    3.7188 O   0  0  0  0  0  0  0  0  0  0  0  0
   -4.2413   -2.4798    2.6408 O   0  0  0  0  0  0  0  0  0  0  0  0
   -5.2369   -2.0808    3.5833 C   0  0  0  0  0  0  0  0  0  0  0  0
   -0.7497   -1.9403    1.8424 C   0  0  0  0  0  0  0  0  0  0  0  0
   -0.3194   -1.0049    2.7788 N   0  0  0  0  0  0  0  0  0  0  0  0
    0.1870   -2.4956    0.9248 N   0  0  0  0  0  0  0  0  0  0  0  0
    1.4480   -1.8386    0.7447 C   0  0  0  0  0  0  0  0  0  0  0  0
    2.5081   -2.0252    1.6437 C   0  0  0  0  0  0  0  0  0  0  0  0
    2.3485   -2.8153    2.7166 F   0  0  0  0  0  0  0  0  0  0  0  0
    3.7411   -1.4079    1.4450 C   0  0  0  0  0  0  0  0  0  0  0  0
    3.9283   -0.5821    0.3368 C   0  0  0  0  0  0  0  0  0  0  0  0
    2.8823   -0.3713   -0.5642 C   0  0  0  0  0  0  0  0  0  0  0  0
    1.6500   -0.9988   -0.3625 C   0  0  0  0  0  0  0  0  0  0  0  0
   -0.1388   -3.6022    0.1063 C   0  0  0  0  0  0  0  0  0  0  0  0
   -1.4152   -4.0249    0.0077 C   0  0  0  0  0  0  0  0  0  0  0  0
    0.9862   -4.3289   -0.6127 C   0  0  0  0  0  0  0  0  0  0  0  0
    0.6481   -5.7842   -0.9806 C   0  0  0  0  0  0  0  0  0  0  0  0
   -0.7118   -5.8439   -1.6855 C   0  0  0  0  0  0  0  0  0  0  0  0
   -1.7723   -5.2291   -0.8015 C   0  0  0  0  0  0  0  0  0  0  0  0
   -2.9245   -5.6623   -0.7683 O   0  0  0  0  0  0  0  0  0  0  0  0
   -1.0697   -7.2593   -2.0754 C   0  0  0  0  0  0  0  0  0  0  0  0
   -1.2660   -7.6090   -3.2339 O   0  0  0  0  0  0  0  0  0  0  0  0
   -1.1328   -8.0750   -0.9851 O   0  0  0  0  0  0  0  0  0  0  0  0
   -1.5185   -9.4181   -1.2823 C   0  0  0  0  0  0  0  0  0  0  0  0
    1.7970   -6.3901   -1.7768 C   0  0  0  0  0  0  0  0  0  0  0  0
    2.6540   -7.3146   -1.1580 C   0  0  0  0  0  0  0  0  0  0  0  0
    3.7225   -7.8768   -1.8590 C   0  0  0  0  0  0  0  0  0  0  0  0
    3.9508   -7.5209   -3.1861 C   0  0  0  0  0  0  0  0  0  0  0  0
    3.1127   -6.6016   -3.8125 C   0  0  0  0  0  0  0  0  0  0  0  0
    2.0431   -6.0377   -3.1132 C   0  0  0  0  0  0  0  0  0  0  0  0
   -5.1691   -3.9094    0.1707 H   0  0  0  0  0  0  0  0  0  0  0  0
   -6.6950   -2.8419   -1.4476 H   0  0  0  0  0  0  0  0  0  0  0  0
   -5.9045   -0.9639   -2.8629 H   0  0  0  0  0  0  0  0  0  0  0  0
   -3.5571   -0.1589   -2.6436 H   0  0  0  0  0  0  0  0  0  0  0  0
   -3.1039   -4.0942    1.2465 H   0  0  0  0  0  0  0  0  0  0  0  0
   -4.9542   -2.3934    4.5943 H   0  0  0  0  0  0  0  0  0  0  0  0
   -6.1740   -2.5759    3.3142 H   0  0  0  0  0  0  0  0  0  0  0  0
   -5.3944   -0.9987    3.5439 H   0  0  0  0  0  0  0  0  0  0  0  0
    0.5720   -1.2705    3.1868 H   0  0  0  0  0  0  0  0  0  0  0  0
   -1.0135   -0.8112    3.5079 H   0  0  0  0  0  0  0  0  0  0  0  0
    4.5472   -1.5751    2.1544 H   0  0  0  0  0  0  0  0  0  0  0  0
    4.8864   -0.0934    0.1784 H   0  0  0  0  0  0  0  0  0  0  0  0
    3.0218    0.2851   -1.4213 H   0  0  0  0  0  0  0  0  0  0  0  0
    0.8344   -0.8235   -1.0603 H   0  0  0  0  0  0  0  0  0  0  0  0
    1.8836   -4.3565    0.0189 H   0  0  0  0  0  0  0  0  0  0  0  0
    1.2442   -3.7548   -1.5124 H   0  0  0  0  0  0  0  0  0  0  0  0
    0.5641   -6.3439   -0.0341 H   0  0  0  0  0  0  0  0  0  0  0  0
   -0.7036   -5.2516   -2.6119 H   0  0  0  0  0  0  0  0  0  0  0  0
   -2.4721   -9.4406   -1.8214 H   0  0  0  0  0  0  0  0  0  0  0  0
   -1.6481   -9.9468   -0.3303 H   0  0  0  0  0  0  0  0  0  0  0  0
   -0.7332   -9.9213   -1.8581 H   0  0  0  0  0  0  0  0  0  0  0  0
    2.4989   -7.6051   -0.1203 H   0  0  0  0  0  0  0  0  0  0  0  0
    4.3791   -8.5929   -1.3714 H   0  0  0  0  0  0  0  0  0  0  0  0
    4.7835   -7.9604   -3.7306 H   0  0  0  0  0  0  0  0  0  0  0  0
    3.2897   -6.3220   -4.8476 H   0  0  0  0  0  0  0  0  0  0  0  0
    1.4096   -5.3210   -3.6326 H   0  0  0  0  0  0  0  0  0  0  0  0
  1  2  2  0
  2  3  1  0
  3  4  2  0
  4  5  1  0
  5  6  1  0
  5  7  2  0
  7  8  1  0
  8  9  1  0
  9 10  1  0
 10 11  2  0
 10 12  1  0
 12 13  1  0
  9 14  2  0
 14 15  1  0
 14 16  1  0
 16 17  1  0
 17 18  2  0
 18 19  1  0
 18 20  1  0
 20 21  2  0
 21 22  1  0
 22 23  2  0
 16 24  1  0
 24 25  2  0
 24 26  1  0
 26 27  1  0
 27 28  1  0
 28 29  1  0
 29 30  2  0
 28 31  1  0
 31 32  2  0
 31 33  1  0
 33 34  1  0
 27 35  1  0
 35 36  2  0
 36 37  1  0
 37 38  2  0
 38 39  1  0
 39 40  2  0
  7  1  1  0
 25  8  1  0
 23 17  1  0
 29 25  1  0
 40 35  1  0
  1 41  1  0
  2 42  1  0
  3 43  1  0
  4 44  1  0
  8 45  1  0
 13 46  1  0
 13 47  1  0
 13 48  1  0
 15 49  1  0
 15 50  1  0
 20 51  1  0
 21 52  1  0
 22 53  1  0
 23 54  1  0
 26 55  1  0
 26 56  1  0
 27 57  1  0
 28 58  1  0
 34 59  1  0
 34 60  1  0
 34 61  1  0
 36 62  1  0
 37 63  1  0
 38 64  1  0
 39 65  1  0
 40 66  1  0
M  END
>  <mol_id>  (2) 
STK683429

>  <drugclip_rank>  (2) 
2

>  <conformer>  (2) 
20

>  <align_rmsd>  (2) 
1.419

$$$$
G747-0390
     RDKit          3D

 65 68  0  0  0  0  0  0  0  0999 V2000
    4.3718   -0.4574   -5.7943 C   0  0  0  0  0  0  0  0  0  0  0  0
    5.1038   -1.1066   -4.6308 C   0  0  0  0  0  0  0  0  0  0  0  0
    4.5628   -0.6373   -3.3859 O   0  0  0  0  0  0  0  0  0  0  0  0
    5.0977    0.5146   -2.9039 C   0  0  0  0  0  0  0  0  0  0  0  0
    5.9849    1.1618   -3.4493 O   0  0  0  0  0  0  0  0  0  0  0  0
    4.4202    0.9544   -1.6202 C   0  0  0  0  0  0  0  0  0  0  0  0
    4.1651   -0.1984   -0.6428 C   0  0  0  0  0  0  0  0  0  0  0  0
    2.7368   -0.7312   -0.7588 C   0  0  0  0  0  0  0  0  0  0  0  0
    3.1378    1.7180   -1.9512 C   0  0  0  0  0  0  0  0  0  0  0  0
    2.1544    1.6523   -0.7847 C   0  0  0  0  0  0  0  0  0  0  0  0
    1.6694    0.2782   -0.5269 N   0  0  0  0  0  0  0  0  0  0  0  0
    1.0712    0.1381    0.8541 C   0  0  0  0  0  0  0  0  0  0  0  0
    0.1839    1.3235    1.2856 C   0  0  0  0  0  0  0  0  0  0  0  0
   -0.9750    1.7605    0.6143 C   0  0  0  0  0  0  0  0  0  0  0  0
   -1.5398    1.0699   -0.8643 Cl  0  0  0  0  0  0  0  0  0  0  0  0
   -1.7308    2.8305    1.1154 C   0  0  0  0  0  0  0  0  0  0  0  0
   -1.3487    3.4845    2.2849 C   0  0  0  0  0  0  0  0  0  0  0  0
   -0.2063    3.0737    2.9599 C   0  0  0  0  0  0  0  0  0  0  0  0
    0.5465    2.0068    2.4693 C   0  0  0  0  0  0  0  0  0  0  0  0
    0.3298   -1.1779    1.0897 C   0  0  0  0  0  0  0  0  0  0  0  0
    0.2874   -1.6464    2.5200 C   0  0  0  0  0  0  0  0  0  0  0  0
    0.8986   -1.0120    3.3825 O   0  0  0  0  0  0  0  0  0  0  0  0
   -0.4142   -2.8267    2.7934 N   0  0  0  0  0  0  0  0  0  0  0  0
   -1.0157   -3.5877    1.7853 C   0  0  0  0  0  0  0  0  0  0  0  0
   -1.7843   -4.8356    2.1218 C   0  0  0  0  0  0  0  0  0  0  0  0
   -0.9048   -3.1929    0.5083 C   0  0  0  0  0  0  0  0  0  0  0  0
   -0.2159   -1.9851    0.1619 C   0  0  0  0  0  0  0  0  0  0  0  0
   -0.1986   -1.7419   -1.1916 O   0  0  0  0  0  0  0  0  0  0  0  0
   -0.5439   -3.1971    4.2096 C   0  0  0  0  0  0  0  0  0  0  0  0
   -1.8779   -2.8236    4.8379 C   0  0  0  0  0  0  0  0  0  0  0  0
   -2.5940   -1.8047    4.2963 N   0  0  0  0  0  0  0  0  0  0  0  0
   -3.7775   -1.4962    4.8664 C   0  0  0  0  0  0  0  0  0  0  0  0
   -4.2923   -2.1499    5.9714 C   0  0  0  0  0  0  0  0  0  0  0  0
   -3.5412   -3.1724    6.5357 C   0  0  0  0  0  0  0  0  0  0  0  0
   -2.3192   -3.5177    5.9653 C   0  0  0  0  0  0  0  0  0  0  0  0
    4.7561   -0.8278   -6.7500 H   0  0  0  0  0  0  0  0  0  0  0  0
    4.4753    0.6328   -5.7736 H   0  0  0  0  0  0  0  0  0  0  0  0
    3.2962   -0.6699   -5.7352 H   0  0  0  0  0  0  0  0  0  0  0  0
    4.9523   -2.1920   -4.6570 H   0  0  0  0  0  0  0  0  0  0  0  0
    6.1876   -0.9320   -4.6872 H   0  0  0  0  0  0  0  0  0  0  0  0
    5.1317    1.6336   -1.1293 H   0  0  0  0  0  0  0  0  0  0  0  0
    4.8792   -1.0157   -0.7999 H   0  0  0  0  0  0  0  0  0  0  0  0
    4.3234    0.1537    0.3852 H   0  0  0  0  0  0  0  0  0  0  0  0
    2.6418   -1.5955   -0.0932 H   0  0  0  0  0  0  0  0  0  0  0  0
    2.5896   -1.1307   -1.7698 H   0  0  0  0  0  0  0  0  0  0  0  0
    3.3875    2.7654   -2.1647 H   0  0  0  0  0  0  0  0  0  0  0  0
    2.6600    1.3258   -2.8586 H   0  0  0  0  0  0  0  0  0  0  0  0
    2.6494    2.0701    0.1017 H   0  0  0  0  0  0  0  0  0  0  0  0
    1.3083    2.3053   -1.0265 H   0  0  0  0  0  0  0  0  0  0  0  0
    1.9462    0.1402    1.5204 H   0  0  0  0  0  0  0  0  0  0  0  0
   -2.6279    3.1572    0.5921 H   0  0  0  0  0  0  0  0  0  0  0  0
   -1.9422    4.3077    2.6727 H   0  0  0  0  0  0  0  0  0  0  0  0
    0.0958    3.5681    3.8801 H   0  0  0  0  0  0  0  0  0  0  0  0
    1.4190    1.6946    3.0426 H   0  0  0  0  0  0  0  0  0  0  0  0
   -2.1775   -5.3294    1.2232 H   0  0  0  0  0  0  0  0  0  0  0  0
   -2.6426   -4.6044    2.7590 H   0  0  0  0  0  0  0  0  0  0  0  0
   -1.1437   -5.5660    2.6279 H   0  0  0  0  0  0  0  0  0  0  0  0
   -1.3629   -3.7536   -0.3034 H   0  0  0  0  0  0  0  0  0  0  0  0
    0.2179   -0.8607   -1.3181 H   0  0  0  0  0  0  0  0  0  0  0  0
   -0.3716   -4.2769    4.2997 H   0  0  0  0  0  0  0  0  0  0  0  0
    0.2435   -2.7172    4.8059 H   0  0  0  0  0  0  0  0  0  0  0  0
   -4.3185   -0.6823    4.3920 H   0  0  0  0  0  0  0  0  0  0  0  0
   -5.2506   -1.8619    6.3884 H   0  0  0  0  0  0  0  0  0  0  0  0
   -3.9066   -3.7049    7.4086 H   0  0  0  0  0  0  0  0  0  0  0  0
   -1.7284   -4.3177    6.3969 H   0  0  0  0  0  0  0  0  0  0  0  0
  1  2  1  0
  2  3  1  0
  3  4  1  0
  4  5  2  0
  4  6  1  0
  6  7  1  0
  7  8  1  0
  6  9  1  0
  9 10  1  0
 10 11  1  0
 11 12  1  0
 12 13  1  0
 13 14  2  0
 14 15  1  0
 14 16  1  0
 16 17  2  0
 17 18  1  0
 18 19  2  0
 12 20  1  0
 20 21  1  0
 21 22  2  0
 21 23  1  0
 23 24  1  0
 24 25  1  0
 24 26  2  0
 26 27  1  0
 27 28  1  0
 23 29  1  0
 29 30  1  0
 30 31  2  0
 31 32  1  0
 32 33  2  0
 33 34  1  0
 34 35  2  0
 11  8  1  0
 19 13  1  0
 27 20  2  0
 35 30  1  0
  1 36  1  0
  1 37  1  0
  1 38  1  0
  2 39  1  0
  2 40  1  0
  6 41  1  0
  7 42  1  0
  7 43  1  0
  8 44  1  0
  8 45  1  0
  9 46  1  0
  9 47  1  0
 10 48  1  0
 10 49  1  0
 12 50  1  0
 16 51  1  0
 17 52  1  0
 18 53  1  0
 19 54  1  0
 25 55  1  0
 25 56  1  0
 25 57  1  0
 26 58  1  0
 28 59  1  0
 29 60  1  0
 29 61  1  0
 32 62  1  0
 33 63  1  0
 34 64  1  0
 35 65  1  0
M  END
>  <mol_id>  (3) 
G747-0390

>  <drugclip_rank>  (3) 
3

>  <conformer>  (3) 
11

>  <align_rmsd>  (3) 
1.388

$$$$
8015-7084
     RDKit          3D

 66 70  0  0  0  0  0  0  0  0999 V2000
   -4.5986   -2.4112   -0.2992 C   0  0  0  0  0  0  0  0  0  0  0  0
   -5.5340   -1.4466   -0.6832 C   0  0  0  0  0  0  0  0  0  0  0  0
   -5.1179   -0.2825   -1.3269 C   0  0  0  0  0  0  0  0  0  0  0  0
   -3.7645   -0.0823   -1.5854 C   0  0  0  0  0  0  0  0  0  0  0  0
   -2.8362   -1.0460   -1.1991 C   0  0  0  0  0  0  0  0  0  0  0  0
   -1.5421   -0.8143   -1.4593 F   0  0  0  0  0  0  0  0  0  0  0  0
   -3.2295   -2.2253   -0.5526 C   0  0  0  0  0  0  0  0  0  0  0  0
   -2.2208   -3.2890   -0.1145 C   0  0  0  0  0  0  0  0  0  0  0  0
   -1.4178   -3.8082   -1.2923 C   0  0  0  0  0  0  0  0  0  0  0  0
   -2.2370   -4.5729   -2.2645 C   0  0  0  0  0  0  0  0  0  0  0  0
   -3.1551   -5.3106   -1.9355 O   0  0  0  0  0  0  0  0  0  0  0  0
   -1.8807   -4.2842   -3.5452 O   0  0  0  0  0  0  0  0  0  0  0  0
   -2.6886   -4.9353   -4.5270 C   0  0  0  0  0  0  0  0  0  0  0  0
   -0.0773   -3.6192   -1.4095 C   0  0  0  0  0  0  0  0  0  0  0  0
    0.6128   -4.1033   -2.5207 N   0  0  0  0  0  0  0  0  0  0  0  0
    0.6129   -2.9206   -0.3754 N   0  0  0  0  0  0  0  0  0  0  0  0
    1.9731   -2.5365   -0.5931 C   0  0  0  0  0  0  0  0  0  0  0  0
    3.0118   -3.4707   -0.4703 C   0  0  0  0  0  0  0  0  0  0  0  0
    4.3350   -3.0860   -0.6913 C   0  0  0  0  0  0  0  0  0  0  0  0
    4.6299   -1.7671   -1.0374 C   0  0  0  0  0  0  0  0  0  0  0  0
    3.6043   -0.8306   -1.1664 C   0  0  0  0  0  0  0  0  0  0  0  0
    2.2805   -1.2130   -0.9477 C   0  0  0  0  0  0  0  0  0  0  0  0
   -0.0178   -2.5954    0.8511 C   0  0  0  0  0  0  0  0  0  0  0  0
   -1.3446   -2.7852    1.0124 C   0  0  0  0  0  0  0  0  0  0  0  0
    0.8192   -2.0782    2.0120 C   0  0  0  0  0  0  0  0  0  0  0  0
    0.0239   -1.1880    2.9860 C   0  0  0  0  0  0  0  0  0  0  0  0
   -1.2080   -1.9630    3.4699 C   0  0  0  0  0  0  0  0  0  0  0  0
   -1.9974   -2.5913    2.3447 C   0  0  0  0  0  0  0  0  0  0  0  0
   -3.1248   -3.0497    2.5310 O   0  0  0  0  0  0  0  0  0  0  0  0
   -2.0356   -1.1381    4.4265 C   0  0  0  0  0  0  0  0  0  0  0  0
   -3.1062   -0.6032    4.1781 O   0  0  0  0  0  0  0  0  0  0  0  0
   -1.3870   -1.0454    5.6275 O   0  0  0  0  0  0  0  0  0  0  0  0
   -2.0767   -0.2537    6.5963 C   0  0  0  0  0  0  0  0  0  0  0  0
   -0.1659    0.2113    2.3997 C   0  0  0  0  0  0  0  0  0  0  0  0
   -1.3519    0.6578    1.8020 C   0  0  0  0  0  0  0  0  0  0  0  0
   -1.4443    1.9455    1.2649 C   0  0  0  0  0  0  0  0  0  0  0  0
   -0.3538    2.8084    1.3125 C   0  0  0  0  0  0  0  0  0  0  0  0
    0.8331    2.3857    1.9003 C   0  0  0  0  0  0  0  0  0  0  0  0
    0.9255    1.1005    2.4382 C   0  0  0  0  0  0  0  0  0  0  0  0
   -4.9449   -3.3080    0.2136 H   0  0  0  0  0  0  0  0  0  0  0  0
   -6.5891   -1.6047   -0.4714 H   0  0  0  0  0  0  0  0  0  0  0  0
   -5.8476    0.4670   -1.6213 H   0  0  0  0  0  0  0  0  0  0  0  0
   -3.4230    0.8198   -2.0826 H   0  0  0  0  0  0  0  0  0  0  0  0
   -2.7699   -4.1538    0.2865 H   0  0  0  0  0  0  0  0  0  0  0  0
   -2.5778   -6.0215   -4.4532 H   0  0  0  0  0  0  0  0  0  0  0  0
   -3.7375   -4.6424   -4.4187 H   0  0  0  0  0  0  0  0  0  0  0  0
   -2.3418   -4.6182   -5.5143 H   0  0  0  0  0  0  0  0  0  0  0  0
    0.0113   -4.1795   -3.3415 H   0  0  0  0  0  0  0  0  0  0  0  0
    1.4228   -3.5246   -2.7292 H   0  0  0  0  0  0  0  0  0  0  0  0
    2.7822   -4.5008   -0.2089 H   0  0  0  0  0  0  0  0  0  0  0  0
    5.1346   -3.8161   -0.5960 H   0  0  0  0  0  0  0  0  0  0  0  0
    5.6612   -1.4692   -1.2095 H   0  0  0  0  0  0  0  0  0  0  0  0
    3.8335    0.1966   -1.4373 H   0  0  0  0  0  0  0  0  0  0  0  0
    1.4807   -0.4817   -1.0485 H   0  0  0  0  0  0  0  0  0  0  0  0
    1.6952   -1.5162    1.6779 H   0  0  0  0  0  0  0  0  0  0  0  0
    1.2106   -2.9512    2.5524 H   0  0  0  0  0  0  0  0  0  0  0  0
    0.6578   -1.0429    3.8745 H   0  0  0  0  0  0  0  0  0  0  0  0
   -0.8577   -2.8349    4.0452 H   0  0  0  0  0  0  0  0  0  0  0  0
   -3.0559   -0.6883    6.8206 H   0  0  0  0  0  0  0  0  0  0  0  0
   -1.4822   -0.2487    7.5140 H   0  0  0  0  0  0  0  0  0  0  0  0
   -2.1795    0.7776    6.2444 H   0  0  0  0  0  0  0  0  0  0  0  0
   -2.2387    0.0330    1.7372 H   0  0  0  0  0  0  0  0  0  0  0  0
   -2.3766    2.2715    0.8099 H   0  0  0  0  0  0  0  0  0  0  0  0
   -0.4315    3.8080    0.8940 H   0  0  0  0  0  0  0  0  0  0  0  0
    1.6885    3.0548    1.9412 H   0  0  0  0  0  0  0  0  0  0  0  0
    1.8683    0.7940    2.8884 H   0  0  0  0  0  0  0  0  0  0  0  0
  1  2  2  0
  2  3  1  0
  3  4  2  0
  4  5  1  0
  5  6  1  0
  5  7  2  0
  7  8  1  0
  8  9  1  0
  9 10  1  0
 10 11  2  0
 10 12  1  0
 12 13  1  0
  9 14  2  0
 14 15  1  0
 14 16  1  0
 16 17  1  0
 17 18  2  0
 18 19  1  0
 19 20  2  0
 20 21  1  0
 21 22  2  0
 16 23  1  0
 23 24  2  0
 23 25  1  0
 25 26  1  0
 26 27  1  0
 27 28  1  0
 28 29  2  0
 27 30  1  0
 30 31  2  0
 30 32  1  0
 32 33  1  0
 26 34  1  0
 34 35  2  0
 35 36  1  0
 36 37  2  0
 37 38  1  0
 38 39  2  0
  7  1  1  0
 24  8  1  0
 22 17  1  0
 28 24  1  0
 39 34  1  0
  1 40  1  0
  2 41  1  0
  3 42  1  0
  4 43  1  0
  8 44  1  0
 13 45  1  0
 13 46  1  0
 13 47  1  0
 15 48  1  0
 15 49  1  0
 18 50  1  0
 19 51  1  0
 20 52  1  0
 21 53  1  0
 22 54  1  0
 25 55  1  0
 25 56  1  0
 26 57  1  0
 27 58  1  0
 33 59  1  0
 33 60  1  0
 33 61  1  0
 35 62  1  0
 36 63  1  0
 37 64  1  0
 38 65  1  0
 39 66  1  0
M  END
>  <mol_id>  (4) 
8015-7084

>  <drugclip_rank>  (4) 
4

>  <conformer>  (4) 
28

>  <align_rmsd>  (4) 
1.205

$$$$
STK634764
     RDKit          3D

 59 62  0  0  0  0  0  0  0  0999 V2000
   -1.2937   -6.3094    1.1365 C   0  0  0  0  0  0  0  0  0  0  0  0
   -1.4656   -7.5597    1.7109 C   0  0  0  0  0  0  0  0  0  0  0  0
   -2.6657   -8.0697    2.0564 N   0  0  0  0  0  0  0  0  0  0  0  0
   -3.7408   -7.2855    1.8308 C   0  0  0  0  0  0  0  0  0  0  0  0
   -3.6712   -6.0249    1.2580 C   0  0  0  0  0  0  0  0  0  0  0  0
   -2.4208   -5.5182    0.8933 C   0  0  0  0  0  0  0  0  0  0  0  0
   -2.2854   -4.1488    0.2698 C   0  0  0  0  0  0  0  0  0  0  0  0
   -1.8095   -3.1343    1.2454 N   0  0  0  0  0  0  0  0  0  0  0  0
   -3.0344   -2.2130    1.9956 S   0  0  0  0  0  0  0  0  0  0  0  0
   -4.2209   -3.0258    2.1437 O   0  0  0  0  0  0  0  0  0  0  0  0
   -2.4457   -1.5034    3.1102 O   0  0  0  0  0  0  0  0  0  0  0  0
   -0.6724   -2.2446    0.7925 C   0  0  0  0  0  0  0  0  0  0  0  0
   -1.1124   -1.3438   -0.3982 C   0  0  0  0  0  0  0  0  0  0  0  0
   -1.1612   -2.1123   -1.6085 O   0  0  0  0  0  0  0  0  0  0  0  0
   -2.4432   -0.6348   -0.2211 C   0  0  0  0  0  0  0  0  0  0  0  0
   -3.3838   -0.9742    0.7665 C   0  0  0  0  0  0  0  0  0  0  0  0
   -2.7786    0.4017   -1.1141 C   0  0  0  0  0  0  0  0  0  0  0  0
   -4.0127    1.0518   -1.0343 C   0  0  0  0  0  0  0  0  0  0  0  0
   -4.9378    0.6823   -0.0614 C   0  0  0  0  0  0  0  0  0  0  0  0
   -4.6257   -0.3294    0.8429 C   0  0  0  0  0  0  0  0  0  0  0  0
    0.6021   -3.0715    0.5301 C   0  0  0  0  0  0  0  0  0  0  0  0
    1.8404   -2.2200    0.3627 C   0  0  0  0  0  0  0  0  0  0  0  0
    2.3561   -1.9606   -0.9140 C   0  0  0  0  0  0  0  0  0  0  0  0
    3.4929   -1.1627   -1.0721 C   0  0  0  0  0  0  0  0  0  0  0  0
    2.4775   -1.6668    1.4809 C   0  0  0  0  0  0  0  0  0  0  0  0
    3.6136   -0.8688    1.3242 C   0  0  0  0  0  0  0  0  0  0  0  0
    4.1292   -0.6118    0.0475 C   0  0  0  0  0  0  0  0  0  0  0  0
    5.3426    0.2435   -0.0617 C   0  0  0  0  0  0  0  0  0  0  0  0
    5.9068    0.7376    0.9013 O   0  0  0  0  0  0  0  0  0  0  0  0
    5.7103    0.3833   -1.3596 O   0  0  0  0  0  0  0  0  0  0  0  0
    6.8807    1.1860   -1.6033 C   0  0  0  0  0  0  0  0  0  0  0  0
    6.7705    1.7183   -3.0268 C   0  0  0  0  0  0  0  0  0  0  0  0
    8.1302    0.3271   -1.4435 C   0  0  0  0  0  0  0  0  0  0  0  0
   -0.2965   -5.9657    0.8876 H   0  0  0  0  0  0  0  0  0  0  0  0
   -0.6145   -8.2028    1.9151 H   0  0  0  0  0  0  0  0  0  0  0  0
   -4.6943   -7.7078    2.1345 H   0  0  0  0  0  0  0  0  0  0  0  0
   -4.5801   -5.4485    1.1167 H   0  0  0  0  0  0  0  0  0  0  0  0
   -3.2342   -3.8408   -0.1866 H   0  0  0  0  0  0  0  0  0  0  0  0
   -1.5995   -4.2552   -0.5749 H   0  0  0  0  0  0  0  0  0  0  0  0
   -0.4400   -1.5796    1.6365 H   0  0  0  0  0  0  0  0  0  0  0  0
   -0.3439   -0.5749   -0.5443 H   0  0  0  0  0  0  0  0  0  0  0  0
   -1.8582   -1.7496   -2.1822 H   0  0  0  0  0  0  0  0  0  0  0  0
   -2.0743    0.7130   -1.8852 H   0  0  0  0  0  0  0  0  0  0  0  0
   -4.2529    1.8504   -1.7332 H   0  0  0  0  0  0  0  0  0  0  0  0
   -5.8976    1.1903    0.0001 H   0  0  0  0  0  0  0  0  0  0  0  0
   -5.3441   -0.6035    1.6139 H   0  0  0  0  0  0  0  0  0  0  0  0
    0.4914   -3.7199   -0.3464 H   0  0  0  0  0  0  0  0  0  0  0  0
    0.7740   -3.7542    1.3730 H   0  0  0  0  0  0  0  0  0  0  0  0
    1.8751   -2.3785   -1.7972 H   0  0  0  0  0  0  0  0  0  0  0  0
    3.8712   -0.9818   -2.0753 H   0  0  0  0  0  0  0  0  0  0  0  0
    2.0981   -1.8557    2.4842 H   0  0  0  0  0  0  0  0  0  0  0  0
    4.0972   -0.4500    2.2054 H   0  0  0  0  0  0  0  0  0  0  0  0
    6.9121    2.0394   -0.9147 H   0  0  0  0  0  0  0  0  0  0  0  0
    6.7033    0.8977   -3.7497 H   0  0  0  0  0  0  0  0  0  0  0  0
    7.6295    2.3450   -3.2853 H   0  0  0  0  0  0  0  0  0  0  0  0
    5.8578    2.3129   -3.1411 H   0  0  0  0  0  0  0  0  0  0  0  0
    9.0353    0.8975   -1.6742 H   0  0  0  0  0  0  0  0  0  0  0  0
    8.0895   -0.5489   -2.1004 H   0  0  0  0  0  0  0  0  0  0  0  0
    8.2143   -0.0527   -0.4202 H   0  0  0  0  0  0  0  0  0  0  0  0
  1  2  2  0
  2  3  1  0
  3  4  2  0
  4  5  1  0
  5  6  2  0
  6  7  1  0
  7  8  1  0
  8  9  1  0
  9 10  2  0
  9 11  2  0
  8 12  1  0
 12 13  1  0
 13 14  1  0
 13 15  1  0
 15 16  2  0
 15 17  1  0
 17 18  2  0
 18 19  1  0
 19 20  2  0
 12 21  1  0
 21 22  1  0
 22 23  2  0
 23 24  1  0
 22 25  1  0
 25 26  2  0
 26 27  1  0
 27 28  1  0
 28 29  2  0
 28 30  1  0
 30 31  1  0
 31 32  1  0
 31 33  1  0
  6  1  1  0
 16  9  1  0
 20 16  1  0
 27 24  2  0
  1 34  1  0
  2 35  1  0
  4 36  1  0
  5 37  1  0
  7 38  1  0
  7 39  1  0
 12 40  1  0
 13 41  1  0
 14 42  1  0
 17 43  1  0
 18 44  1  0
 19 45  1  0
 20 46  1  0
 21 47  1  0
 21 48  1  0
 23 49  1  0
 24 50  1  0
 25 51  1  0
 26 52  1  0
 31 53  1  0
 32 54  1  0
 32 55  1  0
 32 56  1  0
 33 57  1  0
 33 58  1  0
 33 59  1  0
M  END
>  <mol_id>  (5) 
STK634764

>  <drugclip_rank>  (5) 
5

>  <conformer>  (5) 
13

>  <align_rmsd>  (5) 
0.88

$$$$
Z8979036846
     RDKit          3D

 69 73  0  0  0  0  0  0  0  0999 V2000
    3.2135   -2.3013    1.3714 C   0  0  0  0  0  0  0  0  0  0  0  0
    4.4806   -2.5212    0.8303 C   0  0  0  0  0  0  0  0  0  0  0  0
    4.8323   -1.9735   -0.4120 C   0  0  0  0  0  0  0  0  0  0  0  0
    3.9235   -1.1902   -1.1282 C   0  0  0  0  0  0  0  0  0  0  0  0
    2.6678   -0.9815   -0.5841 C   0  0  0  0  0  0  0  0  0  0  0  0
    2.3137   -1.5375    0.6456 C   0  0  0  0  0  0  0  0  0  0  0  0
    1.5503   -0.1515   -1.1369 C   0  0  0  0  0  0  0  0  0  0  0  0
    0.3124   -0.6490   -0.3137 C   0  0  0  0  0  0  0  0  0  0  0  0
   -0.3009   -1.8637   -1.0780 C   0  0  0  0  0  0  0  0  0  0  0  0
    0.9148   -1.1573    1.0330 C   0  0  0  0  0  0  0  0  0  0  0  0
   -0.7808    0.4832   -0.2074 C   0  0  0  0  0  0  0  0  0  0  0  0
   -2.1041    0.0451    0.3143 N   0  0  0  0  0  0  0  0  0  0  0  0
   -3.2038    0.9651    0.0181 C   0  0  0  0  0  0  0  0  0  0  0  0
   -2.1133   -0.4765    1.6938 C   0  0  0  0  0  0  0  0  0  0  0  0
   -3.4211   -0.3950    2.5239 C   0  0  2  0  0  0  0  0  0  0  0  0
   -3.1731   -1.0169    3.7996 O   0  0  0  0  0  0  0  0  0  0  0  0
   -4.6735   -1.0342    1.8908 C   0  0  2  0  0  0  0  0  0  0  0  0
   -4.8483   -2.3674    2.4067 O   0  0  0  0  0  0  0  0  0  0  0  0
   -4.7104   -1.1195    0.3662 C   0  0  0  0  0  0  0  0  0  0  0  0
   -4.4855    0.1994   -0.4130 C   0  0  0  0  0  0  0  0  0  0  0  0
   -5.6968    1.1347   -0.2429 C   0  0  0  0  0  0  0  0  0  0  0  0
   -4.3729   -0.1727   -1.9105 C   0  0  0  0  0  0  0  0  0  0  0  0
   -0.2837    1.7551    0.4457 C   0  0  0  0  0  0  0  0  0  0  0  0
    0.1632    1.8876    1.6829 N   0  0  0  0  0  0  0  0  0  0  0  0
    0.5007    3.2004    1.8495 N   0  0  0  0  0  0  0  0  0  0  0  0
    0.2539    3.8917    0.7495 N   0  0  0  0  0  0  0  0  0  0  0  0
   -0.2284    3.0015   -0.1386 N   0  0  0  0  0  0  0  0  0  0  0  0
   -0.5976    3.4425   -1.4598 C   0  0  0  0  0  0  0  0  0  0  0  0
   -1.7184    4.4836   -1.4827 C   0  0  0  0  0  0  0  0  0  0  0  0
   -1.6636    5.0260   -2.9056 C   0  0  0  0  0  0  0  0  0  0  0  0
   -0.1982    4.9269   -3.3346 C   0  0  0  0  0  0  0  0  0  0  0  0
    0.5222    4.1447   -2.2359 C   0  0  0  0  0  0  0  0  0  0  0  0
    2.9438   -2.7181    2.3369 H   0  0  0  0  0  0  0  0  0  0  0  0
    5.2049   -3.1171    1.3838 H   0  0  0  0  0  0  0  0  0  0  0  0
    5.8272   -2.1514   -0.8139 H   0  0  0  0  0  0  0  0  0  0  0  0
    4.2033   -0.7590   -2.0825 H   0  0  0  0  0  0  0  0  0  0  0  0
    1.7840    0.9028   -0.9601 H   0  0  0  0  0  0  0  0  0  0  0  0
    1.4208   -0.3124   -2.2127 H   0  0  0  0  0  0  0  0  0  0  0  0
   -1.0938   -2.3436   -0.4988 H   0  0  0  0  0  0  0  0  0  0  0  0
    0.4464   -2.6363   -1.2918 H   0  0  0  0  0  0  0  0  0  0  0  0
   -0.7269   -1.5499   -2.0370 H   0  0  0  0  0  0  0  0  0  0  0  0
    0.3786   -2.0241    1.4303 H   0  0  0  0  0  0  0  0  0  0  0  0
    0.9783   -0.3881    1.8034 H   0  0  0  0  0  0  0  0  0  0  0  0
   -0.9732    0.7159   -1.2621 H   0  0  0  0  0  0  0  0  0  0  0  0
   -2.9380    1.6284   -0.8160 H   0  0  0  0  0  0  0  0  0  0  0  0
   -3.3881    1.6501    0.8536 H   0  0  0  0  0  0  0  0  0  0  0  0
   -1.8180   -1.5331    1.6655 H   0  0  0  0  0  0  0  0  0  0  0  0
   -1.3512    0.0184    2.3048 H   0  0  0  0  0  0  0  0  0  0  0  0
   -3.6348    0.6593    2.7376 H   0  0  0  0  0  0  0  0  0  0  0  0
   -4.0369   -1.3222    4.1415 H   0  0  0  0  0  0  0  0  0  0  0  0
   -5.5517   -0.4820    2.2454 H   0  0  0  0  0  0  0  0  0  0  0  0
   -3.9723   -2.7989    2.3976 H   0  0  0  0  0  0  0  0  0  0  0  0
   -3.9780   -1.8772    0.0437 H   0  0  0  0  0  0  0  0  0  0  0  0
   -5.6769   -1.5562    0.0747 H   0  0  0  0  0  0  0  0  0  0  0  0
   -6.6236    0.6438   -0.5587 H   0  0  0  0  0  0  0  0  0  0  0  0
   -5.8202    1.4486    0.8009 H   0  0  0  0  0  0  0  0  0  0  0  0
   -5.5822    2.0429   -0.8482 H   0  0  0  0  0  0  0  0  0  0  0  0
   -4.2669    0.7207   -2.5354 H   0  0  0  0  0  0  0  0  0  0  0  0
   -5.2659   -0.7102   -2.2530 H   0  0  0  0  0  0  0  0  0  0  0  0
   -3.5060   -0.8156   -2.0977 H   0  0  0  0  0  0  0  0  0  0  0  0
   -0.9167    2.5744   -2.0429 H   0  0  0  0  0  0  0  0  0  0  0  0
   -2.6968    4.0561   -1.2430 H   0  0  0  0  0  0  0  0  0  0  0  0
   -1.5266    5.2961   -0.7696 H   0  0  0  0  0  0  0  0  0  0  0  0
   -2.2823    4.4059   -3.5652 H   0  0  0  0  0  0  0  0  0  0  0  0
   -2.0450    6.0496   -2.9671 H   0  0  0  0  0  0  0  0  0  0  0  0
    0.2509    5.9181   -3.4604 H   0  0  0  0  0  0  0  0  0  0  0  0
   -0.1205    4.4085   -4.2965 H   0  0  0  0  0  0  0  0  0  0  0  0
    1.0775    4.8443   -1.5995 H   0  0  0  0  0  0  0  0  0  0  0  0
    1.2476    3.4328   -2.6433 H   0  0  0  0  0  0  0  0  0  0  0  0
  1  2  2  0
  2  3  1  0
  3  4  2  0
  4  5  1  0
  5  6  2  0
  5  7  1  0
  7  8  1  0
  8  9  1  0
  8 10  1  0
  8 11  1  0
 11 12  1  0
 12 13  1  0
 12 14  1  0
 14 15  1  0
 15 16  1  0
 15 17  1  0
 17 18  1  0
 17 19  1  0
 19 20  1  0
 20 21  1  0
 20 22  1  0
 11 23  1  0
 23 24  2  0
 24 25  1  0
 25 26  2  0
 26 27  1  0
 27 28  1  0
 28 29  1  0
 29 30  1  0
 30 31  1  0
 31 32  1  0
  6  1  1  0
 10  6  1  0
 20 13  1  0
 27 23  1  0
 32 28  1  0
  1 33  1  0
  2 34  1  0
  3 35  1  0
  4 36  1  0
  7 37  1  0
  7 38  1  0
  9 39  1  0
  9 40  1  0
  9 41  1  0
 10 42  1  0
 10 43  1  0
 11 44  1  0
 13 45  1  0
 13 46  1  0
 14 47  1  0
 14 48  1  0
 15 49  1  1
 16 50  1  0
 17 51  1  1
 18 52  1  0
 19 53  1  0
 19 54  1  0
 21 55  1  0
 21 56  1  0
 21 57  1  0
 22 58  1  0
 22 59  1  0
 22 60  1  0
 28 61  1  0
 29 62  1  0
 29 63  1  0
 30 64  1  0
 30 65  1  0
 31 66  1  0
 31 67  1  0
 32 68  1  0
 32 69  1  0
M  END
>  <mol_id>  (6) 
Z8979036846

>  <drugclip_rank>  (6) 
6

>  <conformer>  (6) 
29

>  <align_rmsd>  (6) 
0.815

$$$$
Z358287958
     RDKit          3D

 62 66  0  0  0  0  0  0  0  0999 V2000
   -0.6183    1.4550    0.5529 C   0  0  0  0  0  0  0  0  0  0  0  0
   -0.9147    2.7578    0.1479 C   0  0  0  0  0  0  0  0  0  0  0  0
    0.0562    3.7510    0.2352 C   0  0  0  0  0  0  0  0  0  0  0  0
    1.3241    3.4399    0.7207 C   0  0  0  0  0  0  0  0  0  0  0  0
    1.6183    2.1373    1.1323 C   0  0  0  0  0  0  0  0  0  0  0  0
    0.6478    1.1229    1.0694 C   0  0  0  0  0  0  0  0  0  0  0  0
    0.9178   -0.3101    1.5436 C   0  0  0  0  0  0  0  0  0  0  0  0
    2.2088   -0.8518    0.9753 C   0  0  0  0  0  0  0  0  0  0  0  0
    3.3039   -1.0937    1.7656 N   0  0  0  0  0  0  0  0  0  0  0  0
    2.5671   -1.1764   -0.3212 C   0  0  0  0  0  0  0  0  0  0  0  0
    3.9148   -1.6106   -0.2991 C   0  0  0  0  0  0  0  0  0  0  0  0
    4.3461   -1.5478    1.0072 C   0  0  0  0  0  0  0  0  0  0  0  0
    0.8601   -0.5308    3.0193 N   0  0  0  0  0  0  0  0  0  0  0  0
    2.1004   -0.1243    3.6956 C   0  0  0  0  0  0  0  0  0  0  0  0
    3.3029   -0.9381    3.2060 C   0  0  0  0  0  0  0  0  0  0  0  0
   -0.3262    0.0567    3.6699 C   0  0  0  0  0  0  0  0  0  0  0  0
   -1.6115   -0.6743    3.3179 C   0  0  0  0  0  0  0  0  0  0  0  0
   -2.8221   -0.1316    3.0737 C   0  0  0  0  0  0  0  0  0  0  0  0
   -3.1596    1.3002    3.2617 C   0  0  0  0  0  0  0  0  0  0  0  0
   -4.0338    1.8818    2.6384 O   0  0  0  0  0  0  0  0  0  0  0  0
   -2.4458    1.8360    4.2827 O   0  0  0  0  0  0  0  0  0  0  0  0
   -2.7148    3.2212    4.5317 C   0  0  0  0  0  0  0  0  0  0  0  0
   -1.7601    3.6962    5.6095 C   0  0  0  0  0  0  0  0  0  0  0  0
   -1.4893   -2.0484    3.2354 N   0  0  0  0  0  0  0  0  0  0  0  0
   -2.5190   -2.9281    3.0892 C   0  0  0  0  0  0  0  0  0  0  0  0
   -2.3534   -4.1419    3.0904 O   0  0  0  0  0  0  0  0  0  0  0  0
   -3.7543   -2.3743    2.9617 N   0  0  0  0  0  0  0  0  0  0  0  0
   -3.9630   -0.9862    2.5841 C   0  0  0  0  0  0  0  0  0  0  0  0
   -4.2137   -0.8738    1.0823 C   0  0  0  0  0  0  0  0  0  0  0  0
   -5.3136   -0.1356    0.6126 C   0  0  0  0  0  0  0  0  0  0  0  0
   -5.5542    0.0017   -0.7560 C   0  0  0  0  0  0  0  0  0  0  0  0
   -4.7022   -0.5993   -1.6783 C   0  0  0  0  0  0  0  0  0  0  0  0
   -3.6095   -1.3377   -1.2336 C   0  0  0  0  0  0  0  0  0  0  0  0
   -3.3647   -1.4728    0.1349 C   0  0  0  0  0  0  0  0  0  0  0  0
   -1.3907    0.6959    0.4588 H   0  0  0  0  0  0  0  0  0  0  0  0
   -1.9039    2.9908   -0.2396 H   0  0  0  0  0  0  0  0  0  0  0  0
   -0.1712    4.7638   -0.0870 H   0  0  0  0  0  0  0  0  0  0  0  0
    2.0899    4.2099    0.7724 H   0  0  0  0  0  0  0  0  0  0  0  0
    2.6223    1.9190    1.4876 H   0  0  0  0  0  0  0  0  0  0  0  0
    0.1366   -0.9473    1.1047 H   0  0  0  0  0  0  0  0  0  0  0  0
    1.9274   -1.0958   -1.1905 H   0  0  0  0  0  0  0  0  0  0  0  0
    4.5052   -1.9355   -1.1459 H   0  0  0  0  0  0  0  0  0  0  0  0
    5.3003   -1.7990    1.4506 H   0  0  0  0  0  0  0  0  0  0  0  0
    2.2882    0.9475    3.5694 H   0  0  0  0  0  0  0  0  0  0  0  0
    2.0170   -0.2938    4.7765 H   0  0  0  0  0  0  0  0  0  0  0  0
    4.2405   -0.4530    3.4973 H   0  0  0  0  0  0  0  0  0  0  0  0
    3.2793   -1.9505    3.6260 H   0  0  0  0  0  0  0  0  0  0  0  0
   -0.3713    1.1303    3.4722 H   0  0  0  0  0  0  0  0  0  0  0  0
   -0.2209   -0.0478    4.7588 H   0  0  0  0  0  0  0  0  0  0  0  0
   -3.7494    3.3375    4.8725 H   0  0  0  0  0  0  0  0  0  0  0  0
   -2.5580    3.8035    3.6169 H   0  0  0  0  0  0  0  0  0  0  0  0
   -0.7218    3.5713    5.2849 H   0  0  0  0  0  0  0  0  0  0  0  0
   -1.8817    3.1009    6.5205 H   0  0  0  0  0  0  0  0  0  0  0  0
   -1.9315    4.7494    5.8483 H   0  0  0  0  0  0  0  0  0  0  0  0
   -0.5646   -2.4530    3.3561 H   0  0  0  0  0  0  0  0  0  0  0  0
   -4.4823   -3.0412    2.7471 H   0  0  0  0  0  0  0  0  0  0  0  0
   -4.8799   -0.7055    3.1190 H   0  0  0  0  0  0  0  0  0  0  0  0
   -5.9853    0.3576    1.3130 H   0  0  0  0  0  0  0  0  0  0  0  0
   -6.4049    0.5843   -1.1009 H   0  0  0  0  0  0  0  0  0  0  0  0
   -4.8894   -0.4915   -2.7431 H   0  0  0  0  0  0  0  0  0  0  0  0
   -2.9424   -1.8080   -1.9526 H   0  0  0  0  0  0  0  0  0  0  0  0
   -2.4987   -2.0519    0.4496 H   0  0  0  0  0  0  0  0  0  0  0  0
  1  2  2  0
  2  3  1  0
  3  4  2  0
  4  5  1  0
  5  6  2  0
  6  7  1  0
  7  8  1  0
  8  9  1  0
  8 10  2  0
 10 11  1  0
 11 12  2  0
  7 13  1  0
 13 14  1  0
 14 15  1  0
 13 16  1  0
 16 17  1  0
 17 18  2  0
 18 19  1  0
 19 20  2  0
 19 21  1  0
 21 22  1  0
 22 23  1  0
 17 24  1  0
 24 25  1  0
 25 26  2  0
 25 27  1  0
 27 28  1  0
 28 29  1  0
 29 30  2  0
 30 31  1  0
 31 32  2  0
 32 33  1  0
 33 34  2  0
  6  1  1  0
 15  9  1  0
 12  9  1  0
 28 18  1  0
 34 29  1  0
  1 35  1  0
  2 36  1  0
  3 37  1  0
  4 38  1  0
  5 39  1  0
  7 40  1  0
 10 41  1  0
 11 42  1  0
 12 43  1  0
 14 44  1  0
 14 45  1  0
 15 46  1  0
 15 47  1  0
 16 48  1  0
 16 49  1  0
 22 50  1  0
 22 51  1  0
 23 52  1  0
 23 53  1  0
 23 54  1  0
 24 55  1  0
 27 56  1  0
 28 57  1  0
 30 58  1  0
 31 59  1  0
 32 60  1  0
 33 61  1  0
 34 62  1  0
M  END
>  <mol_id>  (7) 
Z358287958

>  <drugclip_rank>  (7) 
7

>  <conformer>  (7) 
14

>  <align_rmsd>  (7) 
0.824

$$$$
OSSM_078487
     RDKit          3D

 60 65  0  0  0  0  0  0  0  0999 V2000
   -3.9447   -1.3675   -1.9486 C   0  0  0  0  0  0  0  0  0  0  0  0
   -5.1946   -1.1814   -2.5548 C   0  0  0  0  0  0  0  0  0  0  0  0
   -6.3481   -1.1490   -1.7816 C   0  0  0  0  0  0  0  0  0  0  0  0
   -6.2499   -1.3036   -0.4056 C   0  0  0  0  0  0  0  0  0  0  0  0
   -4.9988   -1.4904    0.1968 C   0  0  0  0  0  0  0  0  0  0  0  0
   -3.8140   -1.5300   -0.5589 C   0  0  0  0  0  0  0  0  0  0  0  0
   -2.5365   -1.7088    0.0630 N   0  0  0  0  0  0  0  0  0  0  0  0
   -2.3473   -2.0833    1.3791 C   0  0  0  0  0  0  0  0  0  0  0  0
   -3.1613   -2.4962    2.1933 O   0  0  0  0  0  0  0  0  0  0  0  0
   -1.3199   -1.5407   -0.5645 C   0  0  0  0  0  0  0  0  0  0  0  0
   -1.0768   -1.1671   -1.7062 O   0  0  0  0  0  0  0  0  0  0  0  0
   -0.2177   -1.9414    0.3694 C   0  0  0  0  0  0  0  0  0  0  0  0
   -0.8864   -1.9420    1.7054 C   0  0  0  0  0  0  0  0  0  0  0  0
    0.8283   -0.8576    0.4820 C   0  0  0  0  0  0  0  0  0  0  0  0
    0.2907    0.0048    1.5391 N   0  0  0  0  0  0  0  0  0  0  0  0
   -0.6609   -0.6832    2.3251 O   0  0  0  0  0  0  0  0  0  0  0  0
    0.0773    1.3715    1.2640 C   0  0  0  0  0  0  0  0  0  0  0  0
   -1.0105    2.0520    1.8379 C   0  0  0  0  0  0  0  0  0  0  0  0
   -1.2474    3.4053    1.5791 C   0  0  0  0  0  0  0  0  0  0  0  0
   -0.3858    4.1145    0.7500 C   0  0  0  0  0  0  0  0  0  0  0  0
    0.7171    3.4727    0.1949 C   0  0  0  0  0  0  0  0  0  0  0  0
    0.9503    2.1191    0.4586 C   0  0  0  0  0  0  0  0  0  0  0  0
    2.1925   -1.4674    0.7951 C   0  0  0  0  0  0  0  0  0  0  0  0
    2.7710   -1.5941    2.0687 C   0  0  0  0  0  0  0  0  0  0  0  0
    3.9735   -2.2927    2.2461 C   0  0  0  0  0  0  0  0  0  0  0  0
    4.6498   -2.8233    1.1508 C   0  0  0  0  0  0  0  0  0  0  0  0
    4.1214   -2.6686   -0.1252 C   0  0  0  0  0  0  0  0  0  0  0  0
    2.9066   -2.0041   -0.2998 C   0  0  0  0  0  0  0  0  0  0  0  0
    2.1550   -1.1053    3.1921 O   0  0  0  0  0  0  0  0  0  0  0  0
    2.6551    0.3375    3.8033 S   0  0  0  0  0  0  0  0  0  0  0  0
    1.5884    0.9069    4.6047 O   0  0  0  0  0  0  0  0  0  0  0  0
    3.3208    1.1154    2.7726 O   0  0  0  0  0  0  0  0  0  0  0  0
    3.9115   -0.1387    4.9813 C   0  0  0  0  0  0  0  0  0  0  0  0
    5.2370    0.2719    4.8060 C   0  0  0  0  0  0  0  0  0  0  0  0
    6.2010   -0.1237    5.7332 C   0  0  0  0  0  0  0  0  0  0  0  0
    5.8382   -0.9165    6.8267 C   0  0  0  0  0  0  0  0  0  0  0  0
    4.5113   -1.3156    7.0002 C   0  0  0  0  0  0  0  0  0  0  0  0
    3.5411   -0.9270    6.0773 C   0  0  0  0  0  0  0  0  0  0  0  0
   -3.0861   -1.3895   -2.6140 H   0  0  0  0  0  0  0  0  0  0  0  0
   -5.2593   -1.0553   -3.6327 H   0  0  0  0  0  0  0  0  0  0  0  0
   -7.3176   -0.9993   -2.2486 H   0  0  0  0  0  0  0  0  0  0  0  0
   -7.1455   -1.2687    0.2111 H   0  0  0  0  0  0  0  0  0  0  0  0
   -4.9944   -1.5783    1.2787 H   0  0  0  0  0  0  0  0  0  0  0  0
    0.1405   -2.9292    0.0604 H   0  0  0  0  0  0  0  0  0  0  0  0
   -0.5422   -2.7484    2.3557 H   0  0  0  0  0  0  0  0  0  0  0  0
    0.9237   -0.3161   -0.4672 H   0  0  0  0  0  0  0  0  0  0  0  0
   -1.6922    1.5266    2.5033 H   0  0  0  0  0  0  0  0  0  0  0  0
   -2.0996    3.9032    2.0351 H   0  0  0  0  0  0  0  0  0  0  0  0
   -0.5633    5.1666    0.5525 H   0  0  0  0  0  0  0  0  0  0  0  0
    1.4093    4.0273   -0.4329 H   0  0  0  0  0  0  0  0  0  0  0  0
    1.8498    1.6681    0.0474 H   0  0  0  0  0  0  0  0  0  0  0  0
    4.3909   -2.4340    3.2397 H   0  0  0  0  0  0  0  0  0  0  0  0
    5.5860   -3.3573    1.2949 H   0  0  0  0  0  0  0  0  0  0  0  0
    4.6460   -3.0767   -0.9858 H   0  0  0  0  0  0  0  0  0  0  0  0
    2.5100   -1.9141   -1.3116 H   0  0  0  0  0  0  0  0  0  0  0  0
    5.5236    0.8953    3.9604 H   0  0  0  0  0  0  0  0  0  0  0  0
    7.2355    0.1912    5.6116 H   0  0  0  0  0  0  0  0  0  0  0  0
    6.5916   -1.2175    7.5513 H   0  0  0  0  0  0  0  0  0  0  0  0
    4.2360   -1.9226    7.8605 H   0  0  0  0  0  0  0  0  0  0  0  0
    2.5050   -1.2272    6.2194 H   0  0  0  0  0  0  0  0  0  0  0  0
  1  2  2  0
  2  3  1  0
  3  4  2  0
  4  5  1  0
  5  6  2  0
  6  7  1  0
  7  8  1  0
  8  9  2  0
  7 10  1  0
 10 11  2  0
 10 12  1  0
 12 13  1  0
 12 14  1  0
 14 15  1  0
 15 16  1  0
 15 17  1  0
 17 18  2  0
 18 19  1  0
 19 20  2  0
 20 21  1  0
 21 22  2  0
 14 23  1  0
 23 24  1  0
 24 25  2  0
 25 26  1  0
 26 27  2  0
 27 28  1  0
 24 29  1  0
 29 30  1  0
 30 31  2  0
 30 32  2  0
 30 33  1  0
 33 34  2  0
 34 35  1  0
 35 36  2  0
 36 37  1  0
 37 38  2  0
  6  1  1  0
 13  8  1  0
 16 13  1  0
 22 17  1  0
 28 23  2  0
 38 33  1  0
  1 39  1  0
  2 40  1  0
  3 41  1  0
  4 42  1  0
  5 43  1  0
 12 44  1  0
 13 45  1  0
 14 46  1  0
 18 47  1  0
 19 48  1  0
 20 49  1  0
 21 50  1  0
 22 51  1  0
 25 52  1  0
 26 53  1  0
 27 54  1  0
 28 55  1  0
 34 56  1  0
 35 57  1  0
 36 58  1  0
 37 59  1  0
 38 60  1  0
M  END
>  <mol_id>  (8) 
OSSM_078487

>  <drugclip_rank>  (8) 
8

>  <conformer>  (8) 
29

>  <align_rmsd>  (8) 
1.033

$$$$
G642-1519
     RDKit          3D

 56 61  0  0  0  0  0  0  0  0999 V2000
   -1.1099    0.9884   -3.4918 C   0  0  0  0  0  0  0  0  0  0  0  0
   -1.2459    1.4075   -4.8190 C   0  0  0  0  0  0  0  0  0  0  0  0
   -2.3949    2.0752   -5.2308 C   0  0  0  0  0  0  0  0  0  0  0  0
   -3.4119    2.3259   -4.3167 C   0  0  0  0  0  0  0  0  0  0  0  0
   -3.2789    1.9078   -2.9907 C   0  0  0  0  0  0  0  0  0  0  0  0
   -2.1273    1.2229   -2.5479 C   0  0  0  0  0  0  0  0  0  0  0  0
   -1.9964    0.8005   -1.0604 C   0  0  0  0  0  0  0  0  0  0  0  0
   -0.8607   -0.2729   -0.8534 C   0  0  0  0  0  0  0  0  0  0  0  0
   -0.8752   -1.4233   -1.2893 O   0  0  0  0  0  0  0  0  0  0  0  0
   -3.3062    0.1895   -0.4941 C   0  0  0  0  0  0  0  0  0  0  0  0
   -3.9195   -0.8803   -1.1809 C   0  0  0  0  0  0  0  0  0  0  0  0
   -5.0902   -1.4757   -0.7069 C   0  0  0  0  0  0  0  0  0  0  0  0
   -5.6754   -1.0201    0.4687 C   0  0  0  0  0  0  0  0  0  0  0  0
   -5.0875    0.0270    1.1709 C   0  0  0  0  0  0  0  0  0  0  0  0
   -3.9147    0.6243    0.6977 C   0  0  0  0  0  0  0  0  0  0  0  0
   -1.4345    1.9843   -0.2458 C   0  0  0  0  0  0  0  0  0  0  0  0
   -2.0117    3.2395   -0.0581 C   0  0  0  0  0  0  0  0  0  0  0  0
   -1.3487    4.1833    0.7295 C   0  0  0  0  0  0  0  0  0  0  0  0
   -0.1133    3.8831    1.3157 C   0  0  0  0  0  0  0  0  0  0  0  0
    0.4809    2.6386    1.1134 C   0  0  0  0  0  0  0  0  0  0  0  0
   -0.1841    1.6982    0.3319 C   0  0  0  0  0  0  0  0  0  0  0  0
    0.3091    0.3398   -0.0666 C   0  0  0  0  0  0  0  0  0  0  0  0
    0.9075   -0.4811    0.9729 N   0  0  0  0  0  0  0  0  0  0  0  0
    0.3916   -0.9372    2.1683 C   0  0  0  0  0  0  0  0  0  0  0  0
    1.0666   -1.5003    3.0332 O   0  0  0  0  0  0  0  0  0  0  0  0
   -1.0812   -0.7366    2.3995 C   0  0  0  0  0  0  0  0  0  0  0  0
    2.2331   -0.7028    0.6879 N   0  0  0  0  0  0  0  0  0  0  0  0
    2.4244   -0.1183   -0.4477 C   0  0  0  0  0  0  0  0  0  0  0  0
    1.3751    0.5325   -1.0060 O   0  0  0  0  0  0  0  0  0  0  0  0
    3.6779   -0.0683   -1.2092 C   0  0  0  0  0  0  0  0  0  0  0  0
    4.7909   -0.7489   -0.7165 C   0  0  0  0  0  0  0  0  0  0  0  0
    5.9628   -0.6867   -1.4465 C   0  0  0  0  0  0  0  0  0  0  0  0
    6.0868   -0.0036   -2.6049 N   0  0  0  0  0  0  0  0  0  0  0  0
    4.9929    0.6450   -3.0578 C   0  0  0  0  0  0  0  0  0  0  0  0
    3.7743    0.6449   -2.4037 C   0  0  0  0  0  0  0  0  0  0  0  0
   -0.1931    0.4670   -3.2290 H   0  0  0  0  0  0  0  0  0  0  0  0
   -0.4517    1.2072   -5.5344 H   0  0  0  0  0  0  0  0  0  0  0  0
   -2.4983    2.3970   -6.2637 H   0  0  0  0  0  0  0  0  0  0  0  0
   -4.3126    2.8451   -4.6344 H   0  0  0  0  0  0  0  0  0  0  0  0
   -4.0973    2.1182   -2.3038 H   0  0  0  0  0  0  0  0  0  0  0  0
   -3.4805   -1.2693   -2.1004 H   0  0  0  0  0  0  0  0  0  0  0  0
   -5.5394   -2.2994   -1.2564 H   0  0  0  0  0  0  0  0  0  0  0  0
   -6.5850   -1.4847    0.8402 H   0  0  0  0  0  0  0  0  0  0  0  0
   -5.5407    0.3792    2.0948 H   0  0  0  0  0  0  0  0  0  0  0  0
   -3.4945    1.4280    1.2966 H   0  0  0  0  0  0  0  0  0  0  0  0
   -2.9687    3.4940   -0.5055 H   0  0  0  0  0  0  0  0  0  0  0  0
   -1.7936    5.1639    0.8865 H   0  0  0  0  0  0  0  0  0  0  0  0
    0.3916    4.6321    1.9224 H   0  0  0  0  0  0  0  0  0  0  0  0
    1.4516    2.4184    1.5525 H   0  0  0  0  0  0  0  0  0  0  0  0
   -1.6557   -1.2309    1.6148 H   0  0  0  0  0  0  0  0  0  0  0  0
   -1.3610   -1.1964    3.3530 H   0  0  0  0  0  0  0  0  0  0  0  0
   -1.3219    0.3255    2.4598 H   0  0  0  0  0  0  0  0  0  0  0  0
    4.7505   -1.3147    0.2091 H   0  0  0  0  0  0  0  0  0  0  0  0
    6.8604   -1.1988   -1.1107 H   0  0  0  0  0  0  0  0  0  0  0  0
    5.1289    1.1830   -3.9920 H   0  0  0  0  0  0  0  0  0  0  0  0
    2.9359    1.1894   -2.8219 H   0  0  0  0  0  0  0  0  0  0  0  0
  1  2  2  0
  2  3  1  0
  3  4  2  0
  4  5  1  0
  5  6  2  0
  6  7  1  0
  7  8  1  0
  8  9  2  0
  7 10  1  0
 10 11  2  0
 11 12  1  0
 12 13  2  0
 13 14  1  0
 14 15  2  0
  7 16  1  0
 16 17  2  0
 17 18  1  0
 18 19  2  0
 19 20  1  0
 16 21  1  0
 21 22  1  0
 22 23  1  0
 23 24  1  0
 24 25  2  0
 24 26  1  0
 23 27  1  0
 27 28  2  0
 28 29  1  0
 28 30  1  0
 30 31  2  0
 31 32  1  0
 32 33  2  0
 33 34  1  0
 34 35  2  0
  6  1  1  0
 22  8  1  0
 15 10  1  0
 21 20  2  0
 29 22  1  0
 35 30  1  0
  1 36  1  0
  2 37  1  0
  3 38  1  0
  4 39  1  0
  5 40  1  0
 11 41  1  0
 12 42  1  0
 13 43  1  0
 14 44  1  0
 15 45  1  0
 17 46  1  0
 18 47  1  0
 19 48  1  0
 20 49  1  0
 26 50  1  0
 26 51  1  0
 26 52  1  0
 31 53  1  0
 32 54  1  0
 34 55  1  0
 35 56  1  0
M  END
>  <mol_id>  (9) 
G642-1519

>  <drugclip_rank>  (9) 
9

>  <conformer>  (9) 
19

>  <align_rmsd>  (9) 
1.122

$$$$
C151-0041
     RDKit          3D

 66 71  0  0  0  0  0  0  0  0999 V2000
   -3.6522    0.5598   -1.4421 C   0  0  0  0  0  0  0  0  0  0  0  0
   -4.9457    1.0818   -1.4225 C   0  0  0  0  0  0  0  0  0  0  0  0
   -6.0036    0.3040   -0.9483 C   0  0  0  0  0  0  0  0  0  0  0  0
   -5.7748   -0.9995   -0.5006 C   0  0  0  0  0  0  0  0  0  0  0  0
   -4.4839   -1.5275   -0.5184 C   0  0  0  0  0  0  0  0  0  0  0  0
   -3.4255   -0.7397   -0.9748 C   0  0  0  0  0  0  0  0  0  0  0  0
   -2.0571   -1.2943   -0.9907 C   0  0  0  0  0  0  0  0  0  0  0  0
   -1.8298   -2.2475   -1.7306 O   0  0  0  0  0  0  0  0  0  0  0  0
   -1.0904   -0.7002   -0.1792 N   0  0  0  0  0  0  0  0  0  0  0  0
   -1.3812    0.1680    0.9614 C   0  0  0  0  0  0  0  0  0  0  0  0
    0.2945   -1.1450   -0.2847 C   0  0  0  0  0  0  0  0  0  0  0  0
    0.8203   -1.8262    0.9987 C   0  0  0  0  0  0  0  0  0  0  0  0
    2.3218   -2.1144    0.7634 C   0  0  0  0  0  0  0  0  0  0  0  0
    3.2798   -1.0866    0.8802 C   0  0  0  0  0  0  0  0  0  0  0  0
    4.6339   -1.3194    0.6238 C   0  0  0  0  0  0  0  0  0  0  0  0
    5.0619   -2.5796    0.2205 C   0  0  0  0  0  0  0  0  0  0  0  0
    4.1355   -3.6061    0.0748 C   0  0  0  0  0  0  0  0  0  0  0  0
    2.7808   -3.3771    0.3390 C   0  0  0  0  0  0  0  0  0  0  0  0
    0.5305   -0.8977    2.1856 C   0  0  0  0  0  0  0  0  0  0  0  0
    1.3797   -0.6312    3.0374 O   0  0  0  0  0  0  0  0  0  0  0  0
   -0.9269   -0.4352    2.3140 C   0  0  0  0  0  0  0  0  0  0  0  0
   -1.1478    0.6624    3.3804 C   0  0  0  0  0  0  0  0  0  0  0  0
   -0.2769    1.7681    3.4575 C   0  0  0  0  0  0  0  0  0  0  0  0
   -0.4903    2.8015    4.3737 C   0  0  0  0  0  0  0  0  0  0  0  0
   -1.5860    2.7612    5.2286 C   0  0  0  0  0  0  0  0  0  0  0  0
   -2.4677    1.6878    5.1662 C   0  0  0  0  0  0  0  0  0  0  0  0
   -2.2547    0.6524    4.2500 C   0  0  0  0  0  0  0  0  0  0  0  0
    0.0138   -3.1031    1.3392 C   0  0  0  0  0  0  0  0  0  0  0  0
   -1.3815   -2.8840    1.7520 N   0  0  0  0  0  0  0  0  0  0  0  0
   -1.6813   -1.7490    2.6317 C   0  0  0  0  0  0  0  0  0  0  0  0
   -2.3455   -3.9002    1.6953 C   0  0  0  0  0  0  0  0  0  0  0  0
   -3.4749   -3.7965    2.1674 O   0  0  0  0  0  0  0  0  0  0  0  0
   -1.9893   -5.1734    1.0431 C   0  0  0  0  0  0  0  0  0  0  0  0
   -1.3012   -6.1500    1.7703 C   0  0  0  0  0  0  0  0  0  0  0  0
   -0.9567   -7.3501    1.1492 C   0  0  0  0  0  0  0  0  0  0  0  0
   -1.3109   -7.5730   -0.1843 C   0  0  0  0  0  0  0  0  0  0  0  0
   -2.0116   -6.5983   -0.9002 C   0  0  0  0  0  0  0  0  0  0  0  0
   -2.3556   -5.3939   -0.2865 C   0  0  0  0  0  0  0  0  0  0  0  0
   -2.8293    1.1583   -1.8232 H   0  0  0  0  0  0  0  0  0  0  0  0
   -5.1311    2.0936   -1.7772 H   0  0  0  0  0  0  0  0  0  0  0  0
   -7.0124    0.7114   -0.9355 H   0  0  0  0  0  0  0  0  0  0  0  0
   -6.6016   -1.6057   -0.1383 H   0  0  0  0  0  0  0  0  0  0  0  0
   -4.3103   -2.5418   -0.1708 H   0  0  0  0  0  0  0  0  0  0  0  0
   -2.4463    0.4090    1.0156 H   0  0  0  0  0  0  0  0  0  0  0  0
   -0.8538    1.1089    0.7559 H   0  0  0  0  0  0  0  0  0  0  0  0
    0.8777   -0.2399   -0.5040 H   0  0  0  0  0  0  0  0  0  0  0  0
    0.4196   -1.8073   -1.1499 H   0  0  0  0  0  0  0  0  0  0  0  0
    2.9906   -0.0822    1.1874 H   0  0  0  0  0  0  0  0  0  0  0  0
    5.3532   -0.5123    0.7419 H   0  0  0  0  0  0  0  0  0  0  0  0
    6.1141   -2.7604    0.0171 H   0  0  0  0  0  0  0  0  0  0  0  0
    4.4646   -4.5899   -0.2535 H   0  0  0  0  0  0  0  0  0  0  0  0
    2.1039   -4.2147    0.1864 H   0  0  0  0  0  0  0  0  0  0  0  0
    0.5958    1.8381    2.8099 H   0  0  0  0  0  0  0  0  0  0  0  0
    0.2039    3.6366    4.4177 H   0  0  0  0  0  0  0  0  0  0  0  0
   -1.7524    3.5643    5.9412 H   0  0  0  0  0  0  0  0  0  0  0  0
   -3.3284    1.6547    5.8305 H   0  0  0  0  0  0  0  0  0  0  0  0
   -2.9883   -0.1503    4.2373 H   0  0  0  0  0  0  0  0  0  0  0  0
    0.0077   -3.7661    0.4683 H   0  0  0  0  0  0  0  0  0  0  0  0
    0.4911   -3.6465    2.1662 H   0  0  0  0  0  0  0  0  0  0  0  0
   -2.7633   -1.5730    2.5982 H   0  0  0  0  0  0  0  0  0  0  0  0
   -1.4425   -2.0884    3.6500 H   0  0  0  0  0  0  0  0  0  0  0  0
   -1.0370   -5.9769    2.8106 H   0  0  0  0  0  0  0  0  0  0  0  0
   -0.4151   -8.1140    1.7029 H   0  0  0  0  0  0  0  0  0  0  0  0
   -1.0445   -8.5094   -0.6675 H   0  0  0  0  0  0  0  0  0  0  0  0
   -2.2886   -6.7758   -1.9370 H   0  0  0  0  0  0  0  0  0  0  0  0
   -2.9003   -4.6352   -0.8449 H   0  0  0  0  0  0  0  0  0  0  0  0
  1  2  2  0
  2  3  1  0
  3  4  2  0
  4  5  1  0
  5  6  2  0
  6  7  1  0
  7  8  2  0
  7  9  1  0
  9 10  1  0
  9 11  1  0
 11 12  1  0
 12 13  1  0
 13 14  2  0
 14 15  1  0
 15 16  2  0
 16 17  1  0
 17 18  2  0
 12 19  1  0
 19 20  2  0
 19 21  1  0
 21 22  1  0
 22 23  2  0
 23 24  1  0
 24 25  2  0
 25 26  1  0
 26 27  2  0
 12 28  1  0
 28 29  1  0
 29 30  1  0
 29 31  1  0
 31 32  2  0
 31 33  1  0
 33 34  2  0
 34 35  1  0
 35 36  2  0
 36 37  1  0
 37 38  2  0
  6  1  1  0
 21 10  1  0
 18 13  1  0
 30 21  1  0
 27 22  1  0
 38 33  1  0
  1 39  1  0
  2 40  1  0
  3 41  1  0
  4 42  1  0
  5 43  1  0
 10 44  1  0
 10 45  1  0
 11 46  1  0
 11 47  1  0
 14 48  1  0
 15 49  1  0
 16 50  1  0
 17 51  1  0
 18 52  1  0
 23 53  1  0
 24 54  1  0
 25 55  1  0
 26 56  1  0
 27 57  1  0
 28 58  1  0
 28 59  1  0
 30 60  1  0
 30 61  1  0
 34 62  1  0
 35 63  1  0
 36 64  1  0
 37 65  1  0
 38 66  1  0
M  END
>  <mol_id>  (10) 
C151-0041

>  <drugclip_rank>  (10) 
10

>  <conformer>  (10) 
3

>  <align_rmsd>  (10) 
0.973

$$$$
8018-7726
     RDKit          3D

 56 60  0  0  0  0  0  0  0  0999 V2000
   -1.8544   -3.3696    4.1746 C   0  0  0  0  0  0  0  0  0  0  0  0
   -1.4960   -2.0216    3.5788 C   0  0  0  0  0  0  0  0  0  0  0  0
   -2.6104   -1.1501    3.4265 O   0  0  0  0  0  0  0  0  0  0  0  0
   -3.5230   -1.3619    2.3413 C   0  0  0  0  0  0  0  0  0  0  0  0
   -4.2210   -2.5968    2.5211 O   0  0  0  0  0  0  0  0  0  0  0  0
   -5.1581   -2.5822    3.5954 C   0  0  0  0  0  0  0  0  0  0  0  0
   -6.5709   -2.5377    3.0426 C   0  0  0  0  0  0  0  0  0  0  0  0
   -4.4748   -0.2118    2.2131 N   0  0  0  0  0  0  0  0  0  0  0  0
   -4.3999    0.2994    1.0361 C   0  0  0  0  0  0  0  0  0  0  0  0
   -5.1117    1.3756    0.6119 N   0  0  0  0  0  0  0  0  0  0  0  0
   -3.4251   -0.3435    0.1429 C   0  0  0  0  0  0  0  0  0  0  0  0
   -3.8913   -0.6579   -1.1772 C   0  0  0  0  0  0  0  0  0  0  0  0
   -4.3492   -0.8387   -2.2272 N   0  0  0  0  0  0  0  0  0  0  0  0
   -2.7853   -1.4025    1.0001 C   0  0  0  0  0  0  0  0  0  0  0  0
   -2.5140   -2.7213    0.4900 C   0  0  0  0  0  0  0  0  0  0  0  0
   -2.2620   -3.7874    0.1083 N   0  0  0  0  0  0  0  0  0  0  0  0
   -1.9537   -0.2350    0.4453 C   0  0  0  0  0  0  0  0  0  0  0  0
   -1.3012    0.8381    1.2966 C   0  0  0  0  0  0  0  0  0  0  0  0
   -0.0001    1.0574    0.8000 C   0  0  0  0  0  0  0  0  0  0  0  0
    0.8828    1.9646    1.3640 C   0  0  0  0  0  0  0  0  0  0  0  0
    0.4509    2.6981    2.4659 C   0  0  0  0  0  0  0  0  0  0  0  0
   -0.8409    2.5163    2.9711 C   0  0  0  0  0  0  0  0  0  0  0  0
   -1.7178    1.5932    2.3874 C   0  0  0  0  0  0  0  0  0  0  0  0
    0.2047    0.2443   -0.3292 N   0  0  0  0  0  0  0  0  0  0  0  0
   -0.9174   -0.5082   -0.6244 C   0  0  0  0  0  0  0  0  0  0  0  0
   -1.0824   -1.2668   -1.5630 O   0  0  0  0  0  0  0  0  0  0  0  0
    1.4431    0.1370   -1.0690 C   0  0  0  0  0  0  0  0  0  0  0  0
    2.4109   -0.8308   -0.4266 C   0  0  0  0  0  0  0  0  0  0  0  0
    3.5911   -0.3740    0.1772 C   0  0  0  0  0  0  0  0  0  0  0  0
    4.4727   -1.2730    0.7809 C   0  0  0  0  0  0  0  0  0  0  0  0
    4.1864   -2.6367    0.7860 C   0  0  0  0  0  0  0  0  0  0  0  0
    3.0203   -3.1044    0.1847 C   0  0  0  0  0  0  0  0  0  0  0  0
    2.1381   -2.2081   -0.4199 C   0  0  0  0  0  0  0  0  0  0  0  0
   -2.3902   -3.9961    3.4569 H   0  0  0  0  0  0  0  0  0  0  0  0
   -2.4944   -3.2497    5.0542 H   0  0  0  0  0  0  0  0  0  0  0  0
   -0.9488   -3.9089    4.4689 H   0  0  0  0  0  0  0  0  0  0  0  0
   -0.9318   -2.1319    2.6489 H   0  0  0  0  0  0  0  0  0  0  0  0
   -0.8203   -1.5179    4.2794 H   0  0  0  0  0  0  0  0  0  0  0  0
   -5.0283   -3.5188    4.1478 H   0  0  0  0  0  0  0  0  0  0  0  0
   -4.9804   -1.7617    4.2996 H   0  0  0  0  0  0  0  0  0  0  0  0
   -6.7477   -1.6204    2.4736 H   0  0  0  0  0  0  0  0  0  0  0  0
   -7.3049   -2.5925    3.8516 H   0  0  0  0  0  0  0  0  0  0  0  0
   -6.7406   -3.3738    2.3560 H   0  0  0  0  0  0  0  0  0  0  0  0
   -5.8974    1.6120    1.2122 H   0  0  0  0  0  0  0  0  0  0  0  0
   -5.3311    1.4649   -0.3766 H   0  0  0  0  0  0  0  0  0  0  0  0
    1.8798    2.1205    0.9714 H   0  0  0  0  0  0  0  0  0  0  0  0
    1.1172    3.4184    2.9350 H   0  0  0  0  0  0  0  0  0  0  0  0
   -1.1685    3.0953    3.8326 H   0  0  0  0  0  0  0  0  0  0  0  0
   -2.7048    1.4841    2.8245 H   0  0  0  0  0  0  0  0  0  0  0  0
    1.2254   -0.2159   -2.0850 H   0  0  0  0  0  0  0  0  0  0  0  0
    1.8875    1.1326   -1.1811 H   0  0  0  0  0  0  0  0  0  0  0  0
    3.8369    0.6848    0.1815 H   0  0  0  0  0  0  0  0  0  0  0  0
    5.3854   -0.9100    1.2466 H   0  0  0  0  0  0  0  0  0  0  0  0
    4.8735   -3.3362    1.2547 H   0  0  0  0  0  0  0  0  0  0  0  0
    2.7959   -4.1683    0.1822 H   0  0  0  0  0  0  0  0  0  0  0  0
    1.2350   -2.5949   -0.8911 H   0  0  0  0  0  0  0  0  0  0  0  0
  1  2  1  0
  2  3  1  0
  3  4  1  0
  4  5  1  0
  5  6  1  0
  6  7  1  0
  4  8  1  0
  8  9  2  0
  9 10  1  0
  9 11  1  0
 11 12  1  0
 12 13  3  0
 11 14  1  0
 14 15  1  0
 15 16  3  0
 14 17  1  0
 17 18  1  0
 18 19  1  0
 19 20  2  0
 20 21  1  0
 21 22  2  0
 22 23  1  0
 19 24  1  0
 24 25  1  0
 25 26  2  0
 24 27  1  0
 27 28  1  0
 28 29  2  0
 29 30  1  0
 30 31  2  0
 31 32  1  0
 32 33  2  0
 14  4  1  0
 17 11  1  0
 25 17  1  0
 23 18  2  0
 33 28  1  0
  1 34  1  0
  1 35  1  0
  1 36  1  0
  2 37  1  0
  2 38  1  0
  6 39  1  0
  6 40  1  0
  7 41  1  0
  7 42  1  0
  7 43  1  0
 10 44  1  0
 10 45  1  0
 20 46  1  0
 21 47  1  0
 22 48  1  0
 23 49  1  0
 27 50  1  0
 27 51  1  0
 29 52  1  0
 30 53  1  0
 31 54  1  0
 32 55  1  0
 33 56  1  0
M  END
>  <mol_id>  (11) 
8018-7726

>  <drugclip_rank>  (11) 
11

>  <conformer>  (11) 
25

>  <align_rmsd>  (11) 
0.842

$$$$
OSSM_193618
     RDKit          3D

 63 68  0  0  0  0  0  0  0  0999 V2000
   -2.2245   -3.2818    5.2303 C   0  0  0  0  0  0  0  0  0  0  0  0
   -2.9071   -4.3010    5.8979 C   0  0  0  0  0  0  0  0  0  0  0  0
   -3.0934   -4.2236    7.2700 C   0  0  0  0  0  0  0  0  0  0  0  0
   -2.6171   -3.1162    7.9667 C   0  0  0  0  0  0  0  0  0  0  0  0
   -1.9454   -2.0665    7.3058 C   0  0  0  0  0  0  0  0  0  0  0  0
   -1.5709   -0.8773    8.1507 C   0  0  0  0  0  0  0  0  0  0  0  0
   -1.7070   -2.1651    5.9162 C   0  0  0  0  0  0  0  0  0  0  0  0
   -0.9782   -1.1870    5.1816 N   0  0  0  0  0  0  0  0  0  0  0  0
    0.2274   -0.6526    5.5879 C   0  0  0  0  0  0  0  0  0  0  0  0
    0.8415   -0.8444    6.6291 O   0  0  0  0  0  0  0  0  0  0  0  0
   -1.2685   -0.8186    3.8868 C   0  0  0  0  0  0  0  0  0  0  0  0
   -2.1597   -1.2260    3.1533 O   0  0  0  0  0  0  0  0  0  0  0  0
   -0.3646    0.3083    3.4967 C   0  0  0  0  0  0  0  0  0  0  0  0
    0.7824    0.1655    4.4473 C   0  0  0  0  0  0  0  0  0  0  0  0
    0.2348    0.1076    2.1253 C   0  0  0  0  0  0  0  0  0  0  0  0
    1.5717   -0.4314    2.4088 N   0  0  0  0  0  0  0  0  0  0  0  0
    1.7938   -0.5881    3.7895 O   0  0  0  0  0  0  0  0  0  0  0  0
    2.2310   -1.2775    1.5024 C   0  0  0  0  0  0  0  0  0  0  0  0
    3.2933   -2.0852    1.9438 C   0  0  0  0  0  0  0  0  0  0  0  0
    3.9831   -2.9356    1.0732 C   0  0  0  0  0  0  0  0  0  0  0  0
    3.6296   -2.9900   -0.2700 C   0  0  0  0  0  0  0  0  0  0  0  0
    2.5940   -2.1892   -0.7382 C   0  0  0  0  0  0  0  0  0  0  0  0
    1.9083   -1.3395    0.1383 C   0  0  0  0  0  0  0  0  0  0  0  0
    0.2782    1.4394    1.3860 C   0  0  0  0  0  0  0  0  0  0  0  0
   -0.8544    1.8960    0.6870 C   0  0  0  0  0  0  0  0  0  0  0  0
   -0.8569    3.1423    0.0551 C   0  0  0  0  0  0  0  0  0  0  0  0
    0.2863    3.9377    0.0811 C   0  0  0  0  0  0  0  0  0  0  0  0
    1.4232    3.4973    0.7525 C   0  0  0  0  0  0  0  0  0  0  0  0
    1.4178    2.2634    1.4061 C   0  0  0  0  0  0  0  0  0  0  0  0
   -1.9982    1.1346    0.6924 O   0  0  0  0  0  0  0  0  0  0  0  0
   -2.5011    0.4794   -0.7238 S   0  0  0  0  0  0  0  0  0  0  0  0
   -1.4610   -0.3987   -1.2283 O   0  0  0  0  0  0  0  0  0  0  0  0
   -3.0555    1.5310   -1.5579 O   0  0  0  0  0  0  0  0  0  0  0  0
   -3.8580   -0.5599   -0.2253 C   0  0  0  0  0  0  0  0  0  0  0  0
   -3.5896   -1.8178    0.3218 C   0  0  0  0  0  0  0  0  0  0  0  0
   -4.6497   -2.6407    0.7019 C   0  0  0  0  0  0  0  0  0  0  0  0
   -5.9661   -2.2121    0.5236 C   0  0  0  0  0  0  0  0  0  0  0  0
   -6.2290   -0.9608   -0.0368 C   0  0  0  0  0  0  0  0  0  0  0  0
   -5.1749   -0.1296   -0.4167 C   0  0  0  0  0  0  0  0  0  0  0  0
   -2.0692   -3.4046    4.1604 H   0  0  0  0  0  0  0  0  0  0  0  0
   -3.2782   -5.1594    5.3437 H   0  0  0  0  0  0  0  0  0  0  0  0
   -3.6152   -5.0178    7.7974 H   0  0  0  0  0  0  0  0  0  0  0  0
   -2.7892   -3.0613    9.0408 H   0  0  0  0  0  0  0  0  0  0  0  0
   -1.5188    0.0429    7.5618 H   0  0  0  0  0  0  0  0  0  0  0  0
   -0.6185   -1.0530    8.6582 H   0  0  0  0  0  0  0  0  0  0  0  0
   -2.3348   -0.6978    8.9165 H   0  0  0  0  0  0  0  0  0  0  0  0
   -0.9244    1.2394    3.6440 H   0  0  0  0  0  0  0  0  0  0  0  0
    1.1806    1.1235    4.7938 H   0  0  0  0  0  0  0  0  0  0  0  0
   -0.3395   -0.6183    1.5374 H   0  0  0  0  0  0  0  0  0  0  0  0
    3.5973   -2.0587    2.9879 H   0  0  0  0  0  0  0  0  0  0  0  0
    4.7963   -3.5499    1.4498 H   0  0  0  0  0  0  0  0  0  0  0  0
    4.1627   -3.6478   -0.9507 H   0  0  0  0  0  0  0  0  0  0  0  0
    2.3155   -2.2158   -1.7888 H   0  0  0  0  0  0  0  0  0  0  0  0
    1.1215   -0.7222   -0.2859 H   0  0  0  0  0  0  0  0  0  0  0  0
   -1.7433    3.5067   -0.4589 H   0  0  0  0  0  0  0  0  0  0  0  0
    0.2899    4.9017   -0.4216 H   0  0  0  0  0  0  0  0  0  0  0  0
    2.3183    4.1150    0.7699 H   0  0  0  0  0  0  0  0  0  0  0  0
    2.3222    1.9478    1.9253 H   0  0  0  0  0  0  0  0  0  0  0  0
   -2.5669   -2.1596    0.4657 H   0  0  0  0  0  0  0  0  0  0  0  0
   -4.4494   -3.6154    1.1401 H   0  0  0  0  0  0  0  0  0  0  0  0
   -6.7899   -2.8569    0.8213 H   0  0  0  0  0  0  0  0  0  0  0  0
   -7.2570   -0.6355   -0.1786 H   0  0  0  0  0  0  0  0  0  0  0  0
   -5.3904    0.8409   -0.8585 H   0  0  0  0  0  0  0  0  0  0  0  0
  1  2  2  0
  2  3  1  0
  3  4  2  0
  4  5  1  0
  5  6  1  0
  5  7  2  0
  7  8  1  0
  8  9  1  0
  9 10  2  0
  8 11  1  0
 11 12  2  0
 11 13  1  0
 13 14  1  0
 13 15  1  0
 15 16  1  0
 16 17  1  0
 16 18  1  0
 18 19  2  0
 19 20  1  0
 20 21  2  0
 21 22  1  0
 22 23  2  0
 15 24  1  0
 24 25  1  0
 25 26  2  0
 26 27  1  0
 27 28  2  0
 28 29  1  0
 25 30  1  0
 30 31  1  0
 31 32  2  0
 31 33  2  0
 31 34  1  0
 34 35  2  0
 35 36  1  0
 36 37  2  0
 37 38  1  0
 38 39  2  0
  7  1  1  0
 14  9  1  0
 17 14  1  0
 23 18  1  0
 29 24  2  0
 39 34  1  0
  1 40  1  0
  2 41  1  0
  3 42  1  0
  4 43  1  0
  6 44  1  0
  6 45  1  0
  6 46  1  0
 13 47  1  0
 14 48  1  0
 15 49  1  0
 19 50  1  0
 20 51  1  0
 21 52  1  0
 22 53  1  0
 23 54  1  0
 26 55  1  0
 27 56  1  0
 28 57  1  0
 29 58  1  0
 35 59  1  0
 36 60  1  0
 37 61  1  0
 38 62  1  0
 39 63  1  0
M  END
>  <mol_id>  (12) 
OSSM_193618

>  <drugclip_rank>  (12) 
12

>  <conformer>  (12) 
2

>  <align_rmsd>  (12) 
1.232

$$$$
STK759784
     RDKit          3D

 60 62  0  0  0  0  0  0  0  0999 V2000
   -4.4753   -0.1971    0.5968 C   0  0  0  0  0  0  0  0  0  0  0  0
   -5.6694   -0.0152   -0.0930 C   0  0  0  0  0  0  0  0  0  0  0  0
   -5.9905   -0.8458   -1.1641 C   0  0  0  0  0  0  0  0  0  0  0  0
   -5.1196   -1.8613   -1.5424 C   0  0  0  0  0  0  0  0  0  0  0  0
   -3.9215   -2.0451   -0.8574 C   0  0  0  0  0  0  0  0  0  0  0  0
   -3.5831   -1.2110    0.2211 C   0  0  0  0  0  0  0  0  0  0  0  0
   -2.2760   -1.3935    0.9977 C   0  0  0  0  0  0  0  0  0  0  0  0
   -2.3595   -2.7063    1.8055 C   0  0  0  0  0  0  0  0  0  0  0  0
   -0.9780   -3.1465    2.3087 C   0  0  0  0  0  0  0  0  0  0  0  0
   -0.3749   -2.1267    3.1190 O   0  0  0  0  0  0  0  0  0  0  0  0
   -1.0267   -4.4310    3.1455 C   0  0  0  0  0  0  0  0  0  0  0  0
   -3.3086   -2.5033    2.9661 C   0  0  0  0  0  0  0  0  0  0  0  0
   -3.0046   -1.9232    4.0024 O   0  0  0  0  0  0  0  0  0  0  0  0
   -4.5158   -3.0675    2.7041 O   0  0  0  0  0  0  0  0  0  0  0  0
   -5.4920   -2.8903    3.7388 C   0  0  0  0  0  0  0  0  0  0  0  0
   -6.8111   -3.4508    3.2615 C   0  0  0  0  0  0  0  0  0  0  0  0
   -1.0605   -1.3185    0.0827 C   0  0  0  0  0  0  0  0  0  0  0  0
   -0.9967   -0.0740   -0.7366 C   0  0  0  0  0  0  0  0  0  0  0  0
   -1.3515    1.0200   -0.3183 O   0  0  0  0  0  0  0  0  0  0  0  0
   -0.5195   -0.3276   -1.9865 O   0  0  0  0  0  0  0  0  0  0  0  0
   -0.4363    0.8363   -2.8169 C   0  0  0  0  0  0  0  0  0  0  0  0
    0.0434    0.4054   -4.1909 C   0  0  0  0  0  0  0  0  0  0  0  0
   -0.0611   -2.2332    0.0720 C   0  0  0  0  0  0  0  0  0  0  0  0
   -0.0634   -3.3777    1.0850 C   0  0  0  0  0  0  0  0  0  0  0  0
    0.9963   -2.2649   -0.8400 N   0  0  0  0  0  0  0  0  0  0  0  0
    2.3612   -2.2329   -0.4552 C   0  0  0  0  0  0  0  0  0  0  0  0
    2.8180   -1.5018    0.6532 C   0  0  0  0  0  0  0  0  0  0  0  0
    4.1838   -1.4202    0.9310 C   0  0  0  0  0  0  0  0  0  0  0  0
    5.1078   -2.0546    0.0939 C   0  0  0  0  0  0  0  0  0  0  0  0
    4.6631   -2.7708   -1.0113 C   0  0  0  0  0  0  0  0  0  0  0  0
    3.2989   -2.8429   -1.2951 C   0  0  0  0  0  0  0  0  0  0  0  0
   -4.2391    0.4612    1.4249 H   0  0  0  0  0  0  0  0  0  0  0  0
   -6.3503    0.7777    0.2005 H   0  0  0  0  0  0  0  0  0  0  0  0
   -6.9177   -0.6923   -1.7048 H   0  0  0  0  0  0  0  0  0  0  0  0
   -5.3710   -2.5092   -2.3764 H   0  0  0  0  0  0  0  0  0  0  0  0
   -3.2522   -2.8399   -1.1763 H   0  0  0  0  0  0  0  0  0  0  0  0
   -2.1803   -0.5583    1.7036 H   0  0  0  0  0  0  0  0  0  0  0  0
   -2.7555   -3.5256    1.1889 H   0  0  0  0  0  0  0  0  0  0  0  0
   -0.9824   -1.9323    3.8638 H   0  0  0  0  0  0  0  0  0  0  0  0
   -0.0198   -4.7108    3.4754 H   0  0  0  0  0  0  0  0  0  0  0  0
   -1.4552   -5.2673    2.5844 H   0  0  0  0  0  0  0  0  0  0  0  0
   -1.6099   -4.2921    4.0626 H   0  0  0  0  0  0  0  0  0  0  0  0
   -5.6108   -1.8255    3.9590 H   0  0  0  0  0  0  0  0  0  0  0  0
   -5.1643   -3.4141    4.6421 H   0  0  0  0  0  0  0  0  0  0  0  0
   -7.5763   -3.3670    4.0432 H   0  0  0  0  0  0  0  0  0  0  0  0
   -7.1590   -2.9223    2.3743 H   0  0  0  0  0  0  0  0  0  0  0  0
   -6.7056   -4.4977    2.9728 H   0  0  0  0  0  0  0  0  0  0  0  0
    0.2753    1.5519   -2.3830 H   0  0  0  0  0  0  0  0  0  0  0  0
   -1.4234    1.3073   -2.9017 H   0  0  0  0  0  0  0  0  0  0  0  0
    0.2066    1.2734   -4.8341 H   0  0  0  0  0  0  0  0  0  0  0  0
   -0.7046   -0.2411   -4.6615 H   0  0  0  0  0  0  0  0  0  0  0  0
    0.9693   -0.1743   -4.1221 H   0  0  0  0  0  0  0  0  0  0  0  0
   -0.3586   -4.2946    0.5546 H   0  0  0  0  0  0  0  0  0  0  0  0
    0.9555   -3.5412    1.4570 H   0  0  0  0  0  0  0  0  0  0  0  0
    0.8660   -1.5793   -1.5890 H   0  0  0  0  0  0  0  0  0  0  0  0
    2.1135   -0.9805    1.2975 H   0  0  0  0  0  0  0  0  0  0  0  0
    4.5281   -0.8456    1.7911 H   0  0  0  0  0  0  0  0  0  0  0  0
    6.1707   -1.9871    0.3061 H   0  0  0  0  0  0  0  0  0  0  0  0
    5.3736   -3.2647   -1.6573 H   0  0  0  0  0  0  0  0  0  0  0  0
    2.9593   -3.4018   -2.1694 H   0  0  0  0  0  0  0  0  0  0  0  0
  1  2  2  0
  2  3  1  0
  3  4  2  0
  4  5  1  0
  5  6  2  0
  6  7  1  0
  7  8  1  0
  8  9  1  0
  9 10  1  0
  9 11  1  0
  8 12  1  0
 12 13  2  0
 12 14  1  0
 14 15  1  0
 15 16  1  0
  7 17  1  0
 17 18  1  0
 18 19  2  0
 18 20  1  0
 20 21  1  0
 21 22  1  0
 17 23  2  0
 23 24  1  0
 23 25  1  0
 25 26  1  0
 26 27  2  0
 27 28  1  0
 28 29  2  0
 29 30  1  0
 30 31  2  0
  6  1  1  0
 24  9  1  0
 31 26  1  0
  1 32  1  0
  2 33  1  0
  3 34  1  0
  4 35  1  0
  5 36  1  0
  7 37  1  0
  8 38  1  0
 10 39  1  0
 11 40  1  0
 11 41  1  0
 11 42  1  0
 15 43  1  0
 15 44  1  0
 16 45  1  0
 16 46  1  0
 16 47  1  0
 21 48  1  0
 21 49  1  0
 22 50  1  0
 22 51  1  0
 22 52  1  0
 24 53  1  0
 24 54  1  0
 25 55  1  0
 27 56  1  0
 28 57  1  0
 29 58  1  0
 30 59  1  0
 31 60  1  0
M  END
>  <mol_id>  (13) 
STK759784

>  <drugclip_rank>  (13) 
13

>  <conformer>  (13) 
5

>  <align_rmsd>  (13) 
0.799

$$$$
8015-7085
     RDKit          3D

 66 70  0  0  0  0  0  0  0  0999 V2000
   -4.8074   -3.0763   -0.4304 C   0  0  0  0  0  0  0  0  0  0  0  0
   -5.6744   -2.4784   -1.3491 C   0  0  0  0  0  0  0  0  0  0  0  0
   -5.2314   -1.4257   -2.1459 C   0  0  0  0  0  0  0  0  0  0  0  0
   -3.9203   -0.9723   -2.0242 C   0  0  0  0  0  0  0  0  0  0  0  0
   -3.0605   -1.5722   -1.1067 C   0  0  0  0  0  0  0  0  0  0  0  0
   -1.8001   -1.1219   -1.0395 F   0  0  0  0  0  0  0  0  0  0  0  0
   -3.4825   -2.6270   -0.2879 C   0  0  0  0  0  0  0  0  0  0  0  0
   -2.5467   -3.3065    0.7171 C   0  0  0  0  0  0  0  0  0  0  0  0
   -2.0513   -2.3406    1.7863 C   0  0  0  0  0  0  0  0  0  0  0  0
   -3.0354   -1.8791    2.8106 C   0  0  0  0  0  0  0  0  0  0  0  0
   -2.7781   -1.0989    3.7188 O   0  0  0  0  0  0  0  0  0  0  0  0
   -4.2413   -2.4798    2.6408 O   0  0  0  0  0  0  0  0  0  0  0  0
   -5.2369   -2.0808    3.5833 C   0  0  0  0  0  0  0  0  0  0  0  0
   -0.7497   -1.9403    1.8424 C   0  0  0  0  0  0  0  0  0  0  0  0
   -0.3194   -1.0049    2.7788 N   0  0  0  0  0  0  0  0  0  0  0  0
    0.1870   -2.4956    0.9248 N   0  0  0  0  0  0  0  0  0  0  0  0
    1.4480   -1.8386    0.7447 C   0  0  0  0  0  0  0  0  0  0  0  0
    2.5081   -2.0252    1.6437 C   0  0  0  0  0  0  0  0  0  0  0  0
    2.3485   -2.8153    2.7166 F   0  0  0  0  0  0  0  0  0  0  0  0
    3.7411   -1.4079    1.4450 C   0  0  0  0  0  0  0  0  0  0  0  0
    3.9283   -0.5821    0.3368 C   0  0  0  0  0  0  0  0  0  0  0  0
    2.8823   -0.3713   -0.5642 C   0  0  0  0  0  0  0  0  0  0  0  0
    1.6500   -0.9988   -0.3625 C   0  0  0  0  0  0  0  0  0  0  0  0
   -0.1388   -3.6022    0.1063 C   0  0  0  0  0  0  0  0  0  0  0  0
   -1.4152   -4.0249    0.0077 C   0  0  0  0  0  0  0  0  0  0  0  0
    0.9862   -4.3289   -0.6127 C   0  0  0  0  0  0  0  0  0  0  0  0
    0.6481   -5.7842   -0.9806 C   0  0  0  0  0  0  0  0  0  0  0  0
   -0.7118   -5.8439   -1.6855 C   0  0  0  0  0  0  0  0  0  0  0  0
   -1.7723   -5.2291   -0.8015 C   0  0  0  0  0  0  0  0  0  0  0  0
   -2.9245   -5.6623   -0.7683 O   0  0  0  0  0  0  0  0  0  0  0  0
   -1.0697   -7.2593   -2.0754 C   0  0  0  0  0  0  0  0  0  0  0  0
   -1.2660   -7.6090   -3.2339 O   0  0  0  0  0  0  0  0  0  0  0  0
   -1.1328   -8.0750   -0.9851 O   0  0  0  0  0  0  0  0  0  0  0  0
   -1.5185   -9.4181   -1.2823 C   0  0  0  0  0  0  0  0  0  0  0  0
    1.7970   -6.3901   -1.7768 C   0  0  0  0  0  0  0  0  0  0  0  0
    2.6540   -7.3146   -1.1580 C   0  0  0  0  0  0  0  0  0  0  0  0
    3.7225   -7.8768   -1.8590 C   0  0  0  0  0  0  0  0  0  0  0  0
    3.9508   -7.5209   -3.1861 C   0  0  0  0  0  0  0  0  0  0  0  0
    3.1127   -6.6016   -3.8125 C   0  0  0  0  0  0  0  0  0  0  0  0
    2.0431   -6.0377   -3.1132 C   0  0  0  0  0  0  0  0  0  0  0  0
   -5.1691   -3.9094    0.1707 H   0  0  0  0  0  0  0  0  0  0  0  0
   -6.6950   -2.8419   -1.4476 H   0  0  0  0  0  0  0  0  0  0  0  0
   -5.9045   -0.9639   -2.8629 H   0  0  0  0  0  0  0  0  0  0  0  0
   -3.5571   -0.1589   -2.6436 H   0  0  0  0  0  0  0  0  0  0  0  0
   -3.1039   -4.0942    1.2465 H   0  0  0  0  0  0  0  0  0  0  0  0
   -4.9542   -2.3934    4.5943 H   0  0  0  0  0  0  0  0  0  0  0  0
   -6.1740   -2.5759    3.3142 H   0  0  0  0  0  0  0  0  0  0  0  0
   -5.3944   -0.9987    3.5439 H   0  0  0  0  0  0  0  0  0  0  0  0
    0.5720   -1.2705    3.1868 H   0  0  0  0  0  0  0  0  0  0  0  0
   -1.0135   -0.8112    3.5079 H   0  0  0  0  0  0  0  0  0  0  0  0
    4.5472   -1.5751    2.1544 H   0  0  0  0  0  0  0  0  0  0  0  0
    4.8864   -0.0934    0.1784 H   0  0  0  0  0  0  0  0  0  0  0  0
    3.0218    0.2851   -1.4213 H   0  0  0  0  0  0  0  0  0  0  0  0
    0.8344   -0.8235   -1.0603 H   0  0  0  0  0  0  0  0  0  0  0  0
    1.8836   -4.3565    0.0189 H   0  0  0  0  0  0  0  0  0  0  0  0
    1.2442   -3.7548   -1.5124 H   0  0  0  0  0  0  0  0  0  0  0  0
    0.5641   -6.3439   -0.0341 H   0  0  0  0  0  0  0  0  0  0  0  0
   -0.7036   -5.2516   -2.6119 H   0  0  0  0  0  0  0  0  0  0  0  0
   -2.4721   -9.4406   -1.8214 H   0  0  0  0  0  0  0  0  0  0  0  0
   -1.6481   -9.9468   -0.3303 H   0  0  0  0  0  0  0  0  0  0  0  0
   -0.7332   -9.9213   -1.8581 H   0  0  0  0  0  0  0  0  0  0  0  0
    2.4989   -7.6051   -0.1203 H   0  0  0  0  0  0  0  0  0  0  0  0
    4.3791   -8.5929   -1.3714 H   0  0  0  0  0  0  0  0  0  0  0  0
    4.7835   -7.9604   -3.7306 H   0  0  0  0  0  0  0  0  0  0  0  0
    3.2897   -6.3220   -4.8476 H   0  0  0  0  0  0  0  0  0  0  0  0
    1.4096   -5.3210   -3.6326 H   0  0  0  0  0  0  0  0  0  0  0  0
  1  2  2  0
  2  3  1  0
  3  4  2  0
  4  5  1  0
  5  6  1  0
  5  7  2  0
  7  8  1  0
  8  9  1  0
  9 10  1  0
 10 11  2  0
 10 12  1  0
 12 13  1  0
  9 14  2  0
 14 15  1  0
 14 16  1  0
 16 17  1  0
 17 18  2  0
 18 19  1  0
 18 20  1  0
 20 21  2  0
 21 22  1  0
 22 23  2  0
 16 24  1  0
 24 25  2  0
 24 26  1  0
 26 27  1  0
 27 28  1  0
 28 29  1  0
 29 30  2  0
 28 31  1  0
 31 32  2  0
 31 33  1  0
 33 34  1  0
 27 35  1  0
 35 36  2  0
 36 37  1  0
 37 38  2  0
 38 39  1  0
 39 40  2  0
  7  1  1  0
 25  8  1  0
 23 17  1  0
 29 25  1  0
 40 35  1  0
  1 41  1  0
  2 42  1  0
  3 43  1  0
  4 44  1  0
  8 45  1  0
 13 46  1  0
 13 47  1  0
 13 48  1  0
 15 49  1  0
 15 50  1  0
 20 51  1  0
 21 52  1  0
 22 53  1  0
 23 54  1  0
 26 55  1  0
 26 56  1  0
 27 57  1  0
 28 58  1  0
 34 59  1  0
 34 60  1  0
 34 61  1  0
 36 62  1  0
 37 63  1  0
 38 64  1  0
 39 65  1  0
 40 66  1  0
M  END
>  <mol_id>  (14) 
8015-7085

>  <drugclip_rank>  (14) 
14

>  <conformer>  (14) 
20

>  <align_rmsd>  (14) 
1.419

$$$$
OSSM_274094
     RDKit          3D

 57 60  0  0  0  0  0  0  0  0999 V2000
   -4.7181   -0.5196    0.7955 C   0  0  0  0  0  0  0  0  0  0  0  0
   -5.0837    0.4130   -0.1719 C   0  0  0  0  0  0  0  0  0  0  0  0
   -4.1400    0.8665   -1.0910 C   0  0  0  0  0  0  0  0  0  0  0  0
   -2.8309    0.3790   -1.0553 C   0  0  0  0  0  0  0  0  0  0  0  0
   -2.4370   -0.5744   -0.0971 C   0  0  0  0  0  0  0  0  0  0  0  0
   -3.4028   -0.9991    0.8360 C   0  0  0  0  0  0  0  0  0  0  0  0
   -1.0155   -1.1178   -0.1567 C   0  0  0  0  0  0  0  0  0  0  0  0
   -0.8615   -1.9018   -1.3495 O   0  0  0  0  0  0  0  0  0  0  0  0
   -0.5625   -1.9398    1.0823 C   0  0  0  0  0  0  0  0  0  0  0  0
   -1.6376   -2.9362    1.4753 N   0  0  0  0  0  0  0  0  0  0  0  0
   -2.9869   -2.1414    2.1348 S   0  0  0  0  0  0  0  0  0  0  0  0
   -2.5362   -1.3195    3.2385 O   0  0  0  0  0  0  0  0  0  0  0  0
   -4.0763   -3.0769    2.2968 O   0  0  0  0  0  0  0  0  0  0  0  0
   -1.7937   -4.1529    0.6181 C   0  0  0  0  0  0  0  0  0  0  0  0
   -3.0134   -4.1794   -0.2998 C   0  0  0  0  0  0  0  0  0  0  0  0
   -1.7781   -5.3788    1.5324 C   0  0  0  0  0  0  0  0  0  0  0  0
    0.8237   -2.6030    0.9370 C   0  0  0  0  0  0  0  0  0  0  0  0
    1.9555   -1.5930    0.8901 C   0  0  0  0  0  0  0  0  0  0  0  0
    2.4066   -0.9425    2.0553 C   0  0  0  0  0  0  0  0  0  0  0  0
    3.4184    0.0159    1.9567 C   0  0  0  0  0  0  0  0  0  0  0  0
    3.9892    0.3200    0.7179 C   0  0  0  0  0  0  0  0  0  0  0  0
    3.5531   -0.3278   -0.4330 C   0  0  0  0  0  0  0  0  0  0  0  0
    2.5389   -1.2783   -0.3489 C   0  0  0  0  0  0  0  0  0  0  0  0
    1.7833   -1.3178    3.2149 O   0  0  0  0  0  0  0  0  0  0  0  0
    2.1745   -0.7083    4.4491 C   0  0  0  0  0  0  0  0  0  0  0  0
    1.5190    0.6378    4.6633 C   0  0  0  0  0  0  0  0  0  0  0  0
    2.3305    1.6989    4.9132 N   0  0  0  0  0  0  0  0  0  0  0  0
    1.7376    2.8984    5.1050 C   0  0  0  0  0  0  0  0  0  0  0  0
    0.3682    3.0994    5.0645 C   0  0  0  0  0  0  0  0  0  0  0  0
   -0.4480    2.0041    4.8140 C   0  0  0  0  0  0  0  0  0  0  0  0
    0.1311    0.7552    4.6128 C   0  0  0  0  0  0  0  0  0  0  0  0
   -5.4533   -0.8614    1.5220 H   0  0  0  0  0  0  0  0  0  0  0  0
   -6.1021    0.7933   -0.2035 H   0  0  0  0  0  0  0  0  0  0  0  0
   -4.4247    1.6023   -1.8401 H   0  0  0  0  0  0  0  0  0  0  0  0
   -2.1140    0.7480   -1.7884 H   0  0  0  0  0  0  0  0  0  0  0  0
   -0.3407   -0.2590   -0.2588 H   0  0  0  0  0  0  0  0  0  0  0  0
   -1.6274   -1.7434   -1.9269 H   0  0  0  0  0  0  0  0  0  0  0  0
   -0.4809   -1.2327    1.9181 H   0  0  0  0  0  0  0  0  0  0  0  0
   -0.9275   -4.2468   -0.0412 H   0  0  0  0  0  0  0  0  0  0  0  0
   -2.9366   -5.0274   -0.9905 H   0  0  0  0  0  0  0  0  0  0  0  0
   -3.9532   -4.3109    0.2414 H   0  0  0  0  0  0  0  0  0  0  0  0
   -3.0944   -3.2785   -0.9102 H   0  0  0  0  0  0  0  0  0  0  0  0
   -1.8060   -6.3028    0.9454 H   0  0  0  0  0  0  0  0  0  0  0  0
   -2.6342   -5.3867    2.2148 H   0  0  0  0  0  0  0  0  0  0  0  0
   -0.8687   -5.3955    2.1433 H   0  0  0  0  0  0  0  0  0  0  0  0
    0.9997   -3.2902    1.7752 H   0  0  0  0  0  0  0  0  0  0  0  0
    0.8797   -3.2312    0.0411 H   0  0  0  0  0  0  0  0  0  0  0  0
    3.7858    0.5581    2.8226 H   0  0  0  0  0  0  0  0  0  0  0  0
    4.7757    1.0681    0.6564 H   0  0  0  0  0  0  0  0  0  0  0  0
    3.9989   -0.0897   -1.3950 H   0  0  0  0  0  0  0  0  0  0  0  0
    2.1972   -1.7703   -1.2579 H   0  0  0  0  0  0  0  0  0  0  0  0
    3.2651   -0.6618    4.5520 H   0  0  0  0  0  0  0  0  0  0  0  0
    1.8327   -1.3742    5.2508 H   0  0  0  0  0  0  0  0  0  0  0  0
    2.4166    3.7234    5.2998 H   0  0  0  0  0  0  0  0  0  0  0  0
   -0.0525    4.0850    5.2263 H   0  0  0  0  0  0  0  0  0  0  0  0
   -1.5281    2.1147    4.7752 H   0  0  0  0  0  0  0  0  0  0  0  0
   -0.4930   -0.1123    4.4174 H   0  0  0  0  0  0  0  0  0  0  0  0
  1  2  2  0
  2  3  1  0
  3  4  2  0
  4  5  1  0
  5  6  2  0
  5  7  1  0
  7  8  1  0
  7  9  1  0
  9 10  1  0
 10 11  1  0
 11 12  2  0
 11 13  2  0
 10 14  1  0
 14 15  1  0
 14 16  1  0
  9 17  1  0
 17 18  1  0
 18 19  1  0
 19 20  2  0
 20 21  1  0
 21 22  2  0
 22 23  1  0
 19 24  1  0
 24 25  1  0
 25 26  1  0
 26 27  2  0
 27 28  1  0
 28 29  2  0
 29 30  1  0
 30 31  2  0
  6  1  1  0
 11  6  1  0
 23 18  2  0
 31 26  1  0
  1 32  1  0
  2 33  1  0
  3 34  1  0
  4 35  1  0
  7 36  1  0
  8 37  1  0
  9 38  1  0
 14 39  1  0
 15 40  1  0
 15 41  1  0
 15 42  1  0
 16 43  1  0
 16 44  1  0
 16 45  1  0
 17 46  1  0
 17 47  1  0
 20 48  1  0
 21 49  1  0
 22 50  1  0
 23 51  1  0
 25 52  1  0
 25 53  1  0
 28 54  1  0
 29 55  1  0
 30 56  1  0
 31 57  1  0
M  END
>  <mol_id>  (15) 
OSSM_274094

>  <drugclip_rank>  (15) 
15

>  <conformer>  (15) 
12

>  <align_rmsd>  (15) 
1.055

$$$$
STK626581
     RDKit          3D

 56 59  0  0  0  0  0  0  0  0999 V2000
   -2.7650   -6.1084    1.8765 C   0  0  0  0  0  0  0  0  0  0  0  0
   -2.4994   -7.3962    2.3314 C   0  0  0  0  0  0  0  0  0  0  0  0
   -1.4913   -8.1131    1.7173 C   0  0  0  0  0  0  0  0  0  0  0  0
   -0.7473   -7.6345    0.7001 N   0  0  0  0  0  0  0  0  0  0  0  0
   -1.0284   -6.3798    0.2805 C   0  0  0  0  0  0  0  0  0  0  0  0
   -2.0223   -5.5731    0.8229 C   0  0  0  0  0  0  0  0  0  0  0  0
   -2.2782   -4.1866    0.2929 C   0  0  0  0  0  0  0  0  0  0  0  0
   -1.8213   -3.1361    1.2378 N   0  0  0  0  0  0  0  0  0  0  0  0
   -3.0433   -2.2298    2.0010 S   0  0  0  0  0  0  0  0  0  0  0  0
   -2.4471   -1.5021    3.0992 O   0  0  0  0  0  0  0  0  0  0  0  0
   -4.2078   -3.0678    2.1826 O   0  0  0  0  0  0  0  0  0  0  0  0
   -0.6927   -2.2433    0.7742 C   0  0  0  0  0  0  0  0  0  0  0  0
   -1.1493   -1.3198   -0.3959 C   0  0  0  0  0  0  0  0  0  0  0  0
   -1.1674   -2.0525   -1.6294 O   0  0  0  0  0  0  0  0  0  0  0  0
   -2.4982   -0.6448   -0.2157 C   0  0  0  0  0  0  0  0  0  0  0  0
   -3.4317   -1.0106    0.7690 C   0  0  0  0  0  0  0  0  0  0  0  0
   -2.8580    0.3887   -1.1024 C   0  0  0  0  0  0  0  0  0  0  0  0
   -4.1083    1.0079   -1.0211 C   0  0  0  0  0  0  0  0  0  0  0  0
   -5.0260    0.6093   -0.0526 C   0  0  0  0  0  0  0  0  0  0  0  0
   -4.6895   -0.3973    0.8475 C   0  0  0  0  0  0  0  0  0  0  0  0
    0.5771   -3.0652    0.4747 C   0  0  0  0  0  0  0  0  0  0  0  0
    1.8123   -2.2051    0.3218 C   0  0  0  0  0  0  0  0  0  0  0  0
    2.4234   -1.6358    1.4467 C   0  0  0  0  0  0  0  0  0  0  0  0
    3.5486   -0.8202    1.3040 C   0  0  0  0  0  0  0  0  0  0  0  0
    2.3487   -1.9500   -0.9467 C   0  0  0  0  0  0  0  0  0  0  0  0
    3.4779   -1.1374   -1.0905 C   0  0  0  0  0  0  0  0  0  0  0  0
    4.0838   -0.5662    0.0351 C   0  0  0  0  0  0  0  0  0  0  0  0
    5.2796    0.3155   -0.0570 C   0  0  0  0  0  0  0  0  0  0  0  0
    5.7540    0.9070    0.8984 O   0  0  0  0  0  0  0  0  0  0  0  0
    5.7455    0.3576   -1.3280 O   0  0  0  0  0  0  0  0  0  0  0  0
    6.9160    1.1627   -1.5341 C   0  0  0  0  0  0  0  0  0  0  0  0
    6.5248    2.6099   -1.7707 C   0  0  0  0  0  0  0  0  0  0  0  0
   -3.5536   -5.5306    2.3499 H   0  0  0  0  0  0  0  0  0  0  0  0
   -3.0684   -7.8280    3.1457 H   0  0  0  0  0  0  0  0  0  0  0  0
   -1.2484   -9.1217    2.0374 H   0  0  0  0  0  0  0  0  0  0  0  0
   -0.4039   -6.0352   -0.5368 H   0  0  0  0  0  0  0  0  0  0  0  0
   -1.7935   -4.0951   -0.6808 H   0  0  0  0  0  0  0  0  0  0  0  0
   -3.3462   -4.0900    0.0684 H   0  0  0  0  0  0  0  0  0  0  0  0
   -0.4484   -1.5913    1.6244 H   0  0  0  0  0  0  0  0  0  0  0  0
   -0.3971   -0.5296   -0.5134 H   0  0  0  0  0  0  0  0  0  0  0  0
   -1.8768   -1.7001   -2.1934 H   0  0  0  0  0  0  0  0  0  0  0  0
   -2.1601    0.7226   -1.8700 H   0  0  0  0  0  0  0  0  0  0  0  0
   -4.3670    1.8036   -1.7161 H   0  0  0  0  0  0  0  0  0  0  0  0
   -5.9981    1.0933    0.0105 H   0  0  0  0  0  0  0  0  0  0  0  0
   -5.4009   -0.6904    1.6183 H   0  0  0  0  0  0  0  0  0  0  0  0
    0.7588   -3.7767    1.2921 H   0  0  0  0  0  0  0  0  0  0  0  0
    0.4508   -3.6802   -0.4234 H   0  0  0  0  0  0  0  0  0  0  0  0
    2.0297   -1.8245    2.4443 H   0  0  0  0  0  0  0  0  0  0  0  0
    4.0087   -0.3852    2.1896 H   0  0  0  0  0  0  0  0  0  0  0  0
    1.8881   -2.3810   -1.8347 H   0  0  0  0  0  0  0  0  0  0  0  0
    3.8719   -0.9583   -2.0879 H   0  0  0  0  0  0  0  0  0  0  0  0
    7.4205    0.7697   -2.4233 H   0  0  0  0  0  0  0  0  0  0  0  0
    7.6161    1.0684   -0.6969 H   0  0  0  0  0  0  0  0  0  0  0  0
    6.0081    3.0247   -0.9032 H   0  0  0  0  0  0  0  0  0  0  0  0
    7.4061    3.2222   -1.9738 H   0  0  0  0  0  0  0  0  0  0  0  0
    5.8407    2.6863   -2.6170 H   0  0  0  0  0  0  0  0  0  0  0  0
  1  2  2  0
  2  3  1  0
  3  4  2  0
  4  5  1  0
  5  6  2  0
  6  7  1  0
  7  8  1  0
  8  9  1  0
  9 10  2  0
  9 11  2  0
  8 12  1  0
 12 13  1  0
 13 14  1  0
 13 15  1  0
 15 16  2  0
 15 17  1  0
 17 18  2  0
 18 19  1  0
 19 20  2  0
 12 21  1  0
 21 22  1  0
 22 23  2  0
 23 24  1  0
 22 25  1  0
 25 26  2  0
 26 27  1  0
 27 28  1  0
 28 29  2  0
 28 30  1  0
 30 31  1  0
 31 32  1  0
  6  1  1  0
 16  9  1  0
 20 16  1  0
 27 24  2  0
  1 33  1  0
  2 34  1  0
  3 35  1  0
  5 36  1  0
  7 37  1  0
  7 38  1  0
 12 39  1  0
 13 40  1  0
 14 41  1  0
 17 42  1  0
 18 43  1  0
 19 44  1  0
 20 45  1  0
 21 46  1  0
 21 47  1  0
 23 48  1  0
 24 49  1  0
 25 50  1  0
 26 51  1  0
 31 52  1  0
 31 53  1  0
 32 54  1  0
 32 55  1  0
 32 56  1  0
M  END
>  <mol_id>  (16) 
STK626581

>  <drugclip_rank>  (16) 
16

>  <conformer>  (16) 
20

>  <align_rmsd>  (16) 
0.861

$$$$
G747-0001
     RDKit          3D

 66 69  0  0  0  0  0  0  0  0999 V2000
   -2.7457   -1.6854   11.1350 C   0  0  0  0  0  0  0  0  0  0  0  0
   -2.9256   -0.3553   10.4303 C   0  0  0  0  0  0  0  0  0  0  0  0
   -3.3028   -0.6171    9.0734 O   0  0  0  0  0  0  0  0  0  0  0  0
   -3.3961    0.4932    8.2901 C   0  0  0  0  0  0  0  0  0  0  0  0
   -3.2198    1.6360    8.6918 O   0  0  0  0  0  0  0  0  0  0  0  0
   -3.8254    0.1284    6.8718 C   0  0  0  0  0  0  0  0  0  0  0  0
   -3.5779    1.2975    5.9100 C   0  0  0  0  0  0  0  0  0  0  0  0
   -2.0889    1.4619    5.5797 C   0  0  0  0  0  0  0  0  0  0  0  0
   -3.1297   -1.1304    6.3407 C   0  0  0  0  0  0  0  0  0  0  0  0
   -1.6557   -0.8653    6.0259 C   0  0  0  0  0  0  0  0  0  0  0  0
   -1.4410    0.2358    5.0768 N   0  0  0  0  0  0  0  0  0  0  0  0
   -1.8013   -0.0938    3.6650 C   0  0  0  0  0  0  0  0  0  0  0  0
   -1.4464    1.0178    2.6591 C   0  0  0  0  0  0  0  0  0  0  0  0
   -2.3353    1.3145    1.6100 C   0  0  0  0  0  0  0  0  0  0  0  0
   -2.0263    2.2970    0.6669 C   0  0  0  0  0  0  0  0  0  0  0  0
   -0.8222    2.9922    0.7529 C   0  0  0  0  0  0  0  0  0  0  0  0
    0.0738    2.7058    1.7802 C   0  0  0  0  0  0  0  0  0  0  0  0
   -0.2347    1.7251    2.7244 C   0  0  0  0  0  0  0  0  0  0  0  0
   -1.2977   -1.4319    3.1273 C   0  0  0  0  0  0  0  0  0  0  0  0
    0.1753   -1.7247    3.1336 C   0  0  0  0  0  0  0  0  0  0  0  0
    0.9742   -0.9465    3.6525 O   0  0  0  0  0  0  0  0  0  0  0  0
    0.5956   -2.9218    2.5261 N   0  0  0  0  0  0  0  0  0  0  0  0
   -0.3067   -3.8498    2.0007 C   0  0  0  0  0  0  0  0  0  0  0  0
    0.1849   -5.1354    1.3920 C   0  0  0  0  0  0  0  0  0  0  0  0
   -1.6227   -3.5929    2.0518 C   0  0  0  0  0  0  0  0  0  0  0  0
   -2.1167   -2.3616    2.6049 C   0  0  0  0  0  0  0  0  0  0  0  0
   -3.4829   -2.1758    2.5457 O   0  0  0  0  0  0  0  0  0  0  0  0
    2.0475   -3.1483    2.4660 C   0  0  0  0  0  0  0  0  0  0  0  0
    2.6589   -2.8363    1.1149 C   0  0  0  0  0  0  0  0  0  0  0  0
    3.4901   -3.7728    0.4810 C   0  0  0  0  0  0  0  0  0  0  0  0
    4.0767   -3.4842   -0.7528 C   0  0  0  0  0  0  0  0  0  0  0  0
    3.8500   -2.2519   -1.3620 C   0  0  0  0  0  0  0  0  0  0  0  0
    3.0407   -1.3064   -0.7366 C   0  0  0  0  0  0  0  0  0  0  0  0
    2.4530   -1.5939    0.4967 C   0  0  0  0  0  0  0  0  0  0  0  0
   -1.9805   -2.2865   10.6332 H   0  0  0  0  0  0  0  0  0  0  0  0
   -3.6750   -2.2644   11.1083 H   0  0  0  0  0  0  0  0  0  0  0  0
   -2.4510   -1.5378   12.1779 H   0  0  0  0  0  0  0  0  0  0  0  0
   -1.9854    0.2060   10.4574 H   0  0  0  0  0  0  0  0  0  0  0  0
   -3.7156    0.2213   10.9230 H   0  0  0  0  0  0  0  0  0  0  0  0
   -4.9058   -0.0555    6.9283 H   0  0  0  0  0  0  0  0  0  0  0  0
   -4.1469    1.1320    4.9872 H   0  0  0  0  0  0  0  0  0  0  0  0
   -3.9573    2.2355    6.3330 H   0  0  0  0  0  0  0  0  0  0  0  0
   -1.5526    1.7771    6.4841 H   0  0  0  0  0  0  0  0  0  0  0  0
   -1.9676    2.3000    4.8857 H   0  0  0  0  0  0  0  0  0  0  0  0
   -3.2014   -1.9578    7.0557 H   0  0  0  0  0  0  0  0  0  0  0  0
   -3.6479   -1.4723    5.4366 H   0  0  0  0  0  0  0  0  0  0  0  0
   -1.1815   -1.7914    5.6841 H   0  0  0  0  0  0  0  0  0  0  0  0
   -1.1283   -0.6210    6.9579 H   0  0  0  0  0  0  0  0  0  0  0  0
   -2.8974   -0.1368    3.6553 H   0  0  0  0  0  0  0  0  0  0  0  0
   -3.2755    0.7743    1.5216 H   0  0  0  0  0  0  0  0  0  0  0  0
   -2.7240    2.5171   -0.1366 H   0  0  0  0  0  0  0  0  0  0  0  0
   -0.5800    3.7556    0.0189 H   0  0  0  0  0  0  0  0  0  0  0  0
    1.0163    3.2421    1.8498 H   0  0  0  0  0  0  0  0  0  0  0  0
    0.4772    1.5108    3.5206 H   0  0  0  0  0  0  0  0  0  0  0  0
   -0.6442   -5.7793    1.0768 H   0  0  0  0  0  0  0  0  0  0  0  0
    0.7736   -5.7130    2.1111 H   0  0  0  0  0  0  0  0  0  0  0  0
    0.7881   -4.9421    0.5012 H   0  0  0  0  0  0  0  0  0  0  0  0
   -2.3316   -4.3118    1.6548 H   0  0  0  0  0  0  0  0  0  0  0  0
   -3.8884   -2.9077    2.0519 H   0  0  0  0  0  0  0  0  0  0  0  0
    2.2507   -4.1845    2.7594 H   0  0  0  0  0  0  0  0  0  0  0  0
    2.5689   -2.5378    3.2126 H   0  0  0  0  0  0  0  0  0  0  0  0
    3.6866   -4.7369    0.9441 H   0  0  0  0  0  0  0  0  0  0  0  0
    4.7160   -4.2181   -1.2357 H   0  0  0  0  0  0  0  0  0  0  0  0
    4.3091   -2.0249   -2.3203 H   0  0  0  0  0  0  0  0  0  0  0  0
    2.8695   -0.3397   -1.2029 H   0  0  0  0  0  0  0  0  0  0  0  0
    1.8375   -0.8344    0.9760 H   0  0  0  0  0  0  0  0  0  0  0  0
  1  2  1  0
  2  3  1  0
  3  4  1  0
  4  5  2  0
  4  6  1  0
  6  7  1  0
  7  8  1  0
  6  9  1  0
  9 10  1  0
 10 11  1  0
 11 12  1  0
 12 13  1  0
 13 14  2  0
 14 15  1  0
 15 16  2  0
 16 17  1  0
 17 18  2  0
 12 19  1  0
 19 20  1  0
 20 21  2  0
 20 22  1  0
 22 23  1  0
 23 24  1  0
 23 25  2  0
 25 26  1  0
 26 27  1  0
 22 28  1  0
 28 29  1  0
 29 30  2  0
 30 31  1  0
 31 32  2  0
 32 33  1  0
 33 34  2  0
 11  8  1  0
 18 13  1  0
 26 19  2  0
 34 29  1  0
  1 35  1  0
  1 36  1  0
  1 37  1  0
  2 38  1  0
  2 39  1  0
  6 40  1  0
  7 41  1  0
  7 42  1  0
  8 43  1  0
  8 44  1  0
  9 45  1  0
  9 46  1  0
 10 47  1  0
 10 48  1  0
 12 49  1  0
 14 50  1  0
 15 51  1  0
 16 52  1  0
 17 53  1  0
 18 54  1  0
 24 55  1  0
 24 56  1  0
 24 57  1  0
 25 58  1  0
 27 59  1  0
 28 60  1  0
 28 61  1  0
 30 62  1  0
 31 63  1  0
 32 64  1  0
 33 65  1  0
 34 66  1  0
M  END
>  <mol_id>  (17) 
G747-0001

>  <drugclip_rank>  (17) 
17

>  <conformer>  (17) 
10

>  <align_rmsd>  (17) 
1.175

$$$$
STL001747
     RDKit          3D

 63 68  0  0  0  0  0  0  0  0999 V2000
   -1.5055   -3.9801    6.9779 C   0  0  0  0  0  0  0  0  0  0  0  0
   -2.3743   -3.9138    8.0674 C   0  0  0  0  0  0  0  0  0  0  0  0
   -3.7338   -3.6784    7.8649 C   0  0  0  0  0  0  0  0  0  0  0  0
   -4.2249   -3.5068    6.5726 C   0  0  0  0  0  0  0  0  0  0  0  0
   -3.3577   -3.5710    5.4798 C   0  0  0  0  0  0  0  0  0  0  0  0
   -1.9899   -3.8158    5.6724 C   0  0  0  0  0  0  0  0  0  0  0  0
   -1.0413   -3.8453    4.4987 C   0  0  0  0  0  0  0  0  0  0  0  0
   -0.5113   -2.5282    4.2235 N   0  0  0  0  0  0  0  0  0  0  0  0
   -1.0939   -1.6342    3.3776 C   0  0  0  0  0  0  0  0  0  0  0  0
   -2.1200   -1.8005    2.7321 O   0  0  0  0  0  0  0  0  0  0  0  0
    0.6206   -2.0399    4.8083 C   0  0  0  0  0  0  0  0  0  0  0  0
    1.3440   -2.6367    5.5974 O   0  0  0  0  0  0  0  0  0  0  0  0
    0.8553   -0.6390    4.2879 C   0  0  0  0  0  0  0  0  0  0  0  0
   -0.2942   -0.3678    3.3449 C   0  0  0  0  0  0  0  0  0  0  0  0
    2.0740   -0.5877    3.5575 O   0  0  0  0  0  0  0  0  0  0  0  0
    1.7177   -0.6360    2.2026 N   0  0  0  0  0  0  0  0  0  0  0  0
    2.4477   -1.3972    1.2918 C   0  0  0  0  0  0  0  0  0  0  0  0
    3.6008   -2.0799    1.7114 C   0  0  0  0  0  0  0  0  0  0  0  0
    4.3660   -2.8461    0.8258 C   0  0  0  0  0  0  0  0  0  0  0  0
    3.9947   -2.9405   -0.5102 C   0  0  0  0  0  0  0  0  0  0  0  0
    2.8660   -2.2623   -0.9570 C   0  0  0  0  0  0  0  0  0  0  0  0
    2.1060   -1.4958   -0.0650 C   0  0  0  0  0  0  0  0  0  0  0  0
    0.3427   -0.1832    1.9826 C   0  0  0  0  0  0  0  0  0  0  0  0
    0.2665    1.2701    1.5293 C   0  0  0  0  0  0  0  0  0  0  0  0
   -0.9084    1.7786    0.9463 C   0  0  0  0  0  0  0  0  0  0  0  0
   -1.0181    3.1286    0.6020 C   0  0  0  0  0  0  0  0  0  0  0  0
    0.0620    3.9875    0.7903 C   0  0  0  0  0  0  0  0  0  0  0  0
    1.2434    3.5018    1.3391 C   0  0  0  0  0  0  0  0  0  0  0  0
    1.3433    2.1596    1.7089 C   0  0  0  0  0  0  0  0  0  0  0  0
   -2.0124    0.9779    0.7874 O   0  0  0  0  0  0  0  0  0  0  0  0
   -2.3381    0.3845   -0.7121 S   0  0  0  0  0  0  0  0  0  0  0  0
   -1.4869   -0.7688   -0.9453 O   0  0  0  0  0  0  0  0  0  0  0  0
   -2.3856    1.4819   -1.6638 O   0  0  0  0  0  0  0  0  0  0  0  0
   -4.0039   -0.2326   -0.5864 C   0  0  0  0  0  0  0  0  0  0  0  0
   -4.7642   -0.3684   -1.7555 C   0  0  0  0  0  0  0  0  0  0  0  0
   -6.0824   -0.8197   -1.6685 C   0  0  0  0  0  0  0  0  0  0  0  0
   -6.6347   -1.1243   -0.4238 C   0  0  0  0  0  0  0  0  0  0  0  0
   -5.8721   -0.9851    0.7378 C   0  0  0  0  0  0  0  0  0  0  0  0
   -4.5538   -0.5326    0.6603 C   0  0  0  0  0  0  0  0  0  0  0  0
   -0.4440   -4.1537    7.1530 H   0  0  0  0  0  0  0  0  0  0  0  0
   -1.9892   -4.0425    9.0757 H   0  0  0  0  0  0  0  0  0  0  0  0
   -4.4076   -3.6278    8.7154 H   0  0  0  0  0  0  0  0  0  0  0  0
   -5.2841   -3.3184    6.4145 H   0  0  0  0  0  0  0  0  0  0  0  0
   -3.7541   -3.4210    4.4765 H   0  0  0  0  0  0  0  0  0  0  0  0
   -0.2133   -4.5306    4.7120 H   0  0  0  0  0  0  0  0  0  0  0  0
   -1.5545   -4.2277    3.6102 H   0  0  0  0  0  0  0  0  0  0  0  0
    0.8875    0.0693    5.1234 H   0  0  0  0  0  0  0  0  0  0  0  0
   -0.9354    0.4510    3.6858 H   0  0  0  0  0  0  0  0  0  0  0  0
    3.9179   -2.0199    2.7502 H   0  0  0  0  0  0  0  0  0  0  0  0
    5.2531   -3.3608    1.1846 H   0  0  0  0  0  0  0  0  0  0  0  0
    4.5886   -3.5300   -1.2049 H   0  0  0  0  0  0  0  0  0  0  0  0
    2.5743   -2.3170   -2.0029 H   0  0  0  0  0  0  0  0  0  0  0  0
    1.2544   -0.9611   -0.4711 H   0  0  0  0  0  0  0  0  0  0  0  0
   -0.1510   -0.8155    1.2381 H   0  0  0  0  0  0  0  0  0  0  0  0
   -1.9412    3.5190    0.1785 H   0  0  0  0  0  0  0  0  0  0  0  0
   -0.0180    5.0339    0.5083 H   0  0  0  0  0  0  0  0  0  0  0  0
    2.0918    4.1676    1.4827 H   0  0  0  0  0  0  0  0  0  0  0  0
    2.2825    1.8163    2.1409 H   0  0  0  0  0  0  0  0  0  0  0  0
   -4.3384   -0.1314   -2.7272 H   0  0  0  0  0  0  0  0  0  0  0  0
   -6.6798   -0.9360   -2.5718 H   0  0  0  0  0  0  0  0  0  0  0  0
   -7.6622   -1.4770   -0.3588 H   0  0  0  0  0  0  0  0  0  0  0  0
   -6.3037   -1.2273    1.7045 H   0  0  0  0  0  0  0  0  0  0  0  0
   -3.9737   -0.4371    1.5749 H   0  0  0  0  0  0  0  0  0  0  0  0
  1  2  2  0
  2  3  1  0
  3  4  2  0
  4  5  1  0
  5  6  2  0
  6  7  1  0
  7  8  1  0
  8  9  1  0
  9 10  2  0
  8 11  1  0
 11 12  2  0
 11 13  1  0
 13 14  1  0
 13 15  1  0
 15 16  1  0
 16 17  1  0
 17 18  2  0
 18 19  1  0
 19 20  2  0
 20 21  1  0
 21 22  2  0
 16 23  1  0
 23 24  1  0
 24 25  1  0
 25 26  2  0
 26 27  1  0
 27 28  2  0
 28 29  1  0
 25 30  1  0
 30 31  1  0
 31 32  2  0
 31 33  2  0
 31 34  1  0
 34 35  2  0
 35 36  1  0
 36 37  2  0
 37 38  1  0
 38 39  2  0
  6  1  1  0
 14  9  1  0
 23 14  1  0
 22 17  1  0
 29 24  2  0
 39 34  1  0
  1 40  1  0
  2 41  1  0
  3 42  1  0
  4 43  1  0
  5 44  1  0
  7 45  1  0
  7 46  1  0
 13 47  1  0
 14 48  1  0
 18 49  1  0
 19 50  1  0
 20 51  1  0
 21 52  1  0
 22 53  1  0
 23 54  1  0
 26 55  1  0
 27 56  1  0
 28 57  1  0
 29 58  1  0
 35 59  1  0
 36 60  1  0
 37 61  1  0
 38 62  1  0
 39 63  1  0
M  END
>  <mol_id>  (18) 
STL001747

>  <drugclip_rank>  (18) 
18

>  <conformer>  (18) 
3

>  <align_rmsd>  (18) 
1.332

$$$$
STK535467
     RDKit          3D

 51 54  0  0  0  0  0  0  0  0999 V2000
    2.4038   -1.9315   -0.1720 C   0  0  0  0  0  0  0  0  0  0  0  0
    3.2728   -1.5902   -1.2103 C   0  0  0  0  0  0  0  0  0  0  0  0
    3.9321   -0.3560   -1.2145 C   0  0  0  0  0  0  0  0  0  0  0  0
    4.7478   -0.1504   -2.2930 O   0  0  0  0  0  0  0  0  0  0  0  0
    5.4872    1.0641   -2.3178 C   0  0  0  0  0  0  0  0  0  0  0  0
    3.7230    0.5385   -0.1622 C   0  0  0  0  0  0  0  0  0  0  0  0
    2.8523    0.2039    0.8797 C   0  0  0  0  0  0  0  0  0  0  0  0
    2.1734   -1.0177    0.8558 C   0  0  0  0  0  0  0  0  0  0  0  0
    1.2965   -1.3628    1.9870 C   0  0  0  0  0  0  0  0  0  0  0  0
    1.8405   -1.6016    3.0694 O   0  0  0  0  0  0  0  0  0  0  0  0
   -0.0914   -1.3893    1.8397 N   0  0  0  0  0  0  0  0  0  0  0  0
   -0.8869   -0.8326    0.7139 C   0  0  0  0  0  0  0  0  0  0  0  0
   -0.4353   -1.5220   -0.4532 O   0  0  0  0  0  0  0  0  0  0  0  0
   -0.6738    0.6875    0.5946 C   0  0  0  0  0  0  0  0  0  0  0  0
   -1.0233    1.5406    1.6613 C   0  0  0  0  0  0  0  0  0  0  0  0
   -0.8421    2.9225    1.5715 C   0  0  0  0  0  0  0  0  0  0  0  0
   -0.3055    3.4818    0.4162 C   0  0  0  0  0  0  0  0  0  0  0  0
    0.0541    2.6607   -0.6480 C   0  0  0  0  0  0  0  0  0  0  0  0
   -0.1265    1.2778   -0.5608 C   0  0  0  0  0  0  0  0  0  0  0  0
   -0.7643   -1.5391    3.0890 N   0  0  0  0  0  0  0  0  0  0  0  0
   -2.0588   -1.9460    3.1733 C   0  0  0  0  0  0  0  0  0  0  0  0
   -2.5664   -2.4121    4.1898 O   0  0  0  0  0  0  0  0  0  0  0  0
   -2.9034   -1.7362    1.9708 C   0  0  0  0  0  0  0  0  0  0  0  0
   -4.2410   -2.0851    2.0800 O   0  0  0  0  0  0  0  0  0  0  0  0
   -2.3712   -1.2001    0.8584 C   0  0  0  0  0  0  0  0  0  0  0  0
   -3.2549   -0.9864   -0.3119 C   0  0  0  0  0  0  0  0  0  0  0  0
   -3.7836    0.2787   -0.5961 C   0  0  0  0  0  0  0  0  0  0  0  0
   -4.5941    0.4690   -1.7172 C   0  0  0  0  0  0  0  0  0  0  0  0
   -4.8900   -0.6036   -2.5567 C   0  0  0  0  0  0  0  0  0  0  0  0
   -4.3823   -1.8700   -2.2737 C   0  0  0  0  0  0  0  0  0  0  0  0
   -3.5712   -2.0625   -1.1543 C   0  0  0  0  0  0  0  0  0  0  0  0
    1.9065   -2.8977   -0.1743 H   0  0  0  0  0  0  0  0  0  0  0  0
    3.4436   -2.2944   -2.0213 H   0  0  0  0  0  0  0  0  0  0  0  0
    6.1633    1.1334   -1.4592 H   0  0  0  0  0  0  0  0  0  0  0  0
    6.0998    1.0640   -3.2245 H   0  0  0  0  0  0  0  0  0  0  0  0
    4.8197    1.9307   -2.3674 H   0  0  0  0  0  0  0  0  0  0  0  0
    4.2221    1.5007   -0.1188 H   0  0  0  0  0  0  0  0  0  0  0  0
    2.6997    0.8977    1.7033 H   0  0  0  0  0  0  0  0  0  0  0  0
   -0.9651   -1.1887   -1.1959 H   0  0  0  0  0  0  0  0  0  0  0  0
   -1.4432    1.1354    2.5802 H   0  0  0  0  0  0  0  0  0  0  0  0
   -1.1193    3.5615    2.4067 H   0  0  0  0  0  0  0  0  0  0  0  0
   -0.1631    4.5572    0.3471 H   0  0  0  0  0  0  0  0  0  0  0  0
    0.4829    3.0947   -1.5481 H   0  0  0  0  0  0  0  0  0  0  0  0
    0.1904    0.6704   -1.4063 H   0  0  0  0  0  0  0  0  0  0  0  0
   -0.1497   -1.7798    3.8685 H   0  0  0  0  0  0  0  0  0  0  0  0
   -4.3408   -2.4328    2.9919 H   0  0  0  0  0  0  0  0  0  0  0  0
   -3.5795    1.1271    0.0528 H   0  0  0  0  0  0  0  0  0  0  0  0
   -5.0015    1.4541   -1.9300 H   0  0  0  0  0  0  0  0  0  0  0  0
   -5.5269   -0.4547   -3.4251 H   0  0  0  0  0  0  0  0  0  0  0  0
   -4.6248   -2.7103   -2.9193 H   0  0  0  0  0  0  0  0  0  0  0  0
   -3.1903   -3.0591   -0.9395 H   0  0  0  0  0  0  0  0  0  0  0  0
  1  2  2  0
  2  3  1  0
  3  4  1  0
  4  5  1  0
  3  6  2  0
  6  7  1  0
  7  8  2  0
  8  9  1  0
  9 10  2  0
  9 11  1  0
 11 12  1  0
 12 13  1  0
 12 14  1  0
 14 15  2  0
 15 16  1  0
 16 17  2  0
 17 18  1  0
 18 19  2  0
 11 20  1  0
 20 21  1  0
 21 22  2  0
 21 23  1  0
 23 24  1  0
 23 25  2  0
 25 26  1  0
 26 27  2  0
 27 28  1  0
 28 29  2  0
 29 30  1  0
 30 31  2  0
  8  1  1  0
 25 12  1  0
 19 14  1  0
 31 26  1  0
  1 32  1  0
  2 33  1  0
  5 34  1  0
  5 35  1  0
  5 36  1  0
  6 37  1  0
  7 38  1  0
 13 39  1  0
 15 40  1  0
 16 41  1  0
 17 42  1  0
 18 43  1  0
 19 44  1  0
 20 45  1  0
 24 46  1  0
 27 47  1  0
 28 48  1  0
 29 49  1  0
 30 50  1  0
 31 51  1  0
M  END
>  <mol_id>  (19) 
STK535467

>  <drugclip_rank>  (19) 
19

>  <conformer>  (19) 
0

>  <align_rmsd>  (19) 
0.908

$$$$
STL599938
     RDKit          3D

 47 50  0  0  0  0  0  0  0  0999 V2000
   -1.0387    1.5058    1.5763 C   0  0  0  0  0  0  0  0  0  0  0  0
   -0.8347    2.8823    1.4565 C   0  0  0  0  0  0  0  0  0  0  0  0
   -0.3080    3.4094    0.2817 C   0  0  0  0  0  0  0  0  0  0  0  0
    0.0192    2.5613   -0.7718 C   0  0  0  0  0  0  0  0  0  0  0  0
   -0.1846    1.1838   -0.6544 C   0  0  0  0  0  0  0  0  0  0  0  0
   -0.7234    0.6259    0.5208 C   0  0  0  0  0  0  0  0  0  0  0  0
   -0.9617   -0.8874    0.6728 C   0  0  0  0  0  0  0  0  0  0  0  0
   -0.5627   -1.6056   -0.4963 O   0  0  0  0  0  0  0  0  0  0  0  0
   -0.1442   -1.4411    1.7838 N   0  0  0  0  0  0  0  0  0  0  0  0
    1.2480   -1.4500    1.8846 C   0  0  0  0  0  0  0  0  0  0  0  0
    1.8204   -1.6729    2.9558 O   0  0  0  0  0  0  0  0  0  0  0  0
    2.0956   -1.1740    0.7129 C   0  0  0  0  0  0  0  0  0  0  0  0
    2.8078    0.0284    0.6650 C   0  0  0  0  0  0  0  0  0  0  0  0
    3.6551    0.2853   -0.4129 C   0  0  0  0  0  0  0  0  0  0  0  0
    3.8054   -0.6659   -1.4237 C   0  0  0  0  0  0  0  0  0  0  0  0
    3.1181   -1.8796   -1.3556 C   0  0  0  0  0  0  0  0  0  0  0  0
    2.2694   -2.1417   -0.2797 C   0  0  0  0  0  0  0  0  0  0  0  0
   -0.7790   -1.5377    3.0584 N   0  0  0  0  0  0  0  0  0  0  0  0
   -2.0773   -1.9183    3.1934 C   0  0  0  0  0  0  0  0  0  0  0  0
   -2.5618   -2.3483    4.2366 O   0  0  0  0  0  0  0  0  0  0  0  0
   -2.9548   -1.7233    2.0116 C   0  0  0  0  0  0  0  0  0  0  0  0
   -4.2943   -2.0448    2.1700 O   0  0  0  0  0  0  0  0  0  0  0  0
   -2.4477   -1.2237    0.8707 C   0  0  0  0  0  0  0  0  0  0  0  0
   -3.3625   -1.0215   -0.2775 C   0  0  0  0  0  0  0  0  0  0  0  0
   -3.7264   -2.1120   -1.0812 C   0  0  0  0  0  0  0  0  0  0  0  0
   -4.5675   -1.9314   -2.1804 C   0  0  0  0  0  0  0  0  0  0  0  0
   -5.0574   -0.6622   -2.4816 C   0  0  0  0  0  0  0  0  0  0  0  0
   -4.7136    0.4253   -1.6804 C   0  0  0  0  0  0  0  0  0  0  0  0
   -3.8731    0.2469   -0.5796 C   0  0  0  0  0  0  0  0  0  0  0  0
   -1.4491    1.1265    2.5103 H   0  0  0  0  0  0  0  0  0  0  0  0
   -1.0852    3.5421    2.2838 H   0  0  0  0  0  0  0  0  0  0  0  0
   -0.1464    4.4803    0.1895 H   0  0  0  0  0  0  0  0  0  0  0  0
    0.4422    2.9700   -1.6863 H   0  0  0  0  0  0  0  0  0  0  0  0
    0.1091    0.5542   -1.4919 H   0  0  0  0  0  0  0  0  0  0  0  0
   -1.1017   -1.2639   -1.2285 H   0  0  0  0  0  0  0  0  0  0  0  0
    2.7005    0.7616    1.4607 H   0  0  0  0  0  0  0  0  0  0  0  0
    4.2041    1.2222   -0.4602 H   0  0  0  0  0  0  0  0  0  0  0  0
    4.4707   -0.4665   -2.2604 H   0  0  0  0  0  0  0  0  0  0  0  0
    3.2499   -2.6242   -2.1365 H   0  0  0  0  0  0  0  0  0  0  0  0
    1.7432   -3.0908   -0.2198 H   0  0  0  0  0  0  0  0  0  0  0  0
   -0.1442   -1.7700    3.8242 H   0  0  0  0  0  0  0  0  0  0  0  0
   -4.3722   -2.3664    3.0935 H   0  0  0  0  0  0  0  0  0  0  0  0
   -3.3594   -3.1105   -0.8516 H   0  0  0  0  0  0  0  0  0  0  0  0
   -4.8471   -2.7828   -2.7956 H   0  0  0  0  0  0  0  0  0  0  0  0
   -5.7177   -0.5223   -3.3338 H   0  0  0  0  0  0  0  0  0  0  0  0
   -5.1069    1.4131   -1.9068 H   0  0  0  0  0  0  0  0  0  0  0  0
   -3.6318    1.1074    0.0400 H   0  0  0  0  0  0  0  0  0  0  0  0
  1  2  2  0
  2  3  1  0
  3  4  2  0
  4  5  1  0
  5  6  2  0
  6  7  1  0
  7  8  1  0
  7  9  1  0
  9 10  1  0
 10 11  2  0
 10 12  1  0
 12 13  2  0
 13 14  1  0
 14 15  2  0
 15 16  1  0
 16 17  2  0
  9 18  1  0
 18 19  1  0
 19 20  2  0
 19 21  1  0
 21 22  1  0
 21 23  2  0
 23 24  1  0
 24 25  2  0
 25 26  1  0
 26 27  2  0
 27 28  1  0
 28 29  2  0
  6  1  1  0
 23  7  1  0
 17 12  1  0
 29 24  1  0
  1 30  1  0
  2 31  1  0
  3 32  1  0
  4 33  1  0
  5 34  1  0
  8 35  1  0
 13 36  1  0
 14 37  1  0
 15 38  1  0
 16 39  1  0
 17 40  1  0
 18 41  1  0
 22 42  1  0
 25 43  1  0
 26 44  1  0
 27 45  1  0
 28 46  1  0
 29 47  1  0
M  END
>  <mol_id>  (20) 
STL599938

>  <drugclip_rank>  (20) 
20

>  <conformer>  (20) 
5

>  <align_rmsd>  (20) 
0.896

$$$$
G747-0544
     RDKit          3D

 63 66  0  0  0  0  0  0  0  0999 V2000
   -1.7043   -0.5489    5.3485 C   0  0  0  0  0  0  0  0  0  0  0  0
   -2.8432   -0.1798    6.1025 C   0  0  0  0  0  0  0  0  0  0  0  0
   -3.5728   -1.3311    6.2824 C   0  0  0  0  0  0  0  0  0  0  0  0
   -2.9557   -2.3844    5.6884 O   0  0  0  0  0  0  0  0  0  0  0  0
   -1.8149   -1.9042    5.1104 C   0  0  0  0  0  0  0  0  0  0  0  0
   -0.9597   -2.8901    4.3922 C   0  0  0  0  0  0  0  0  0  0  0  0
   -0.9321   -2.5898    2.9554 N   0  0  0  0  0  0  0  0  0  0  0  0
   -1.8999   -3.0943    2.0862 C   0  0  0  0  0  0  0  0  0  0  0  0
   -2.9837   -4.0066    2.5954 C   0  0  0  0  0  0  0  0  0  0  0  0
   -1.8566   -2.7588    0.7879 C   0  0  0  0  0  0  0  0  0  0  0  0
   -0.8393   -1.8783    0.2757 C   0  0  0  0  0  0  0  0  0  0  0  0
   -0.9247   -1.5954   -1.0698 O   0  0  0  0  0  0  0  0  0  0  0  0
    0.0855   -1.7288    2.5230 C   0  0  0  0  0  0  0  0  0  0  0  0
    0.9407   -1.2866    3.2897 O   0  0  0  0  0  0  0  0  0  0  0  0
    0.1123   -1.3489    1.0674 C   0  0  0  0  0  0  0  0  0  0  0  0
    1.2555   -0.3970    0.6707 C   0  0  0  0  0  0  0  0  0  0  0  0
    0.7789    1.0549    0.8855 C   0  0  0  0  0  0  0  0  0  0  0  0
    1.3499    1.9192    1.8378 C   0  0  0  0  0  0  0  0  0  0  0  0
    2.7033    1.4787    2.8189 Cl  0  0  0  0  0  0  0  0  0  0  0  0
    0.8594    3.2219    2.0041 C   0  0  0  0  0  0  0  0  0  0  0  0
   -0.1935    3.6898    1.2202 C   0  0  0  0  0  0  0  0  0  0  0  0
   -0.7558    2.8602    0.2576 C   0  0  0  0  0  0  0  0  0  0  0  0
   -0.2729    1.5611    0.0900 C   0  0  0  0  0  0  0  0  0  0  0  0
    1.8327   -0.6090   -0.7067 N   0  0  0  0  0  0  0  0  0  0  0  0
    2.3945   -1.9715   -0.8237 C   0  0  0  0  0  0  0  0  0  0  0  0
    2.9072   -2.2442   -2.2409 C   0  0  0  0  0  0  0  0  0  0  0  0
    3.9398   -1.2103   -2.6942 C   0  0  0  0  0  0  0  0  0  0  0  0
    3.4031    0.1989   -2.4459 C   0  0  0  0  0  0  0  0  0  0  0  0
    2.8875    0.3757   -1.0155 C   0  0  0  0  0  0  0  0  0  0  0  0
    5.2856   -1.4287   -2.0179 C   0  0  0  0  0  0  0  0  0  0  0  0
    5.5361   -2.3163   -1.2139 O   0  0  0  0  0  0  0  0  0  0  0  0
    6.1936   -0.5165   -2.4684 O   0  0  0  0  0  0  0  0  0  0  0  0
    7.4980   -0.6487   -1.8905 C   0  0  0  0  0  0  0  0  0  0  0  0
    8.3823    0.4406   -2.4651 C   0  0  0  0  0  0  0  0  0  0  0  0
   -0.8960    0.0880    5.0124 H   0  0  0  0  0  0  0  0  0  0  0  0
   -3.0992    0.8034    6.4705 H   0  0  0  0  0  0  0  0  0  0  0  0
   -4.5032   -1.5573    6.7843 H   0  0  0  0  0  0  0  0  0  0  0  0
   -1.3029   -3.9154    4.5602 H   0  0  0  0  0  0  0  0  0  0  0  0
    0.0549   -2.8481    4.8051 H   0  0  0  0  0  0  0  0  0  0  0  0
   -2.5576   -4.9219    3.0180 H   0  0  0  0  0  0  0  0  0  0  0  0
   -3.6646   -4.3157    1.7941 H   0  0  0  0  0  0  0  0  0  0  0  0
   -3.5946   -3.5087    3.3531 H   0  0  0  0  0  0  0  0  0  0  0  0
   -2.6082   -3.1409    0.1052 H   0  0  0  0  0  0  0  0  0  0  0  0
   -1.6021   -2.1510   -1.4853 H   0  0  0  0  0  0  0  0  0  0  0  0
    2.0940   -0.6004    1.3451 H   0  0  0  0  0  0  0  0  0  0  0  0
    1.3051    3.8829    2.7440 H   0  0  0  0  0  0  0  0  0  0  0  0
   -0.5649    4.7022    1.3540 H   0  0  0  0  0  0  0  0  0  0  0  0
   -1.5679    3.2208   -0.3685 H   0  0  0  0  0  0  0  0  0  0  0  0
   -0.7152    0.9354   -0.6832 H   0  0  0  0  0  0  0  0  0  0  0  0
    1.6347   -2.7313   -0.6150 H   0  0  0  0  0  0  0  0  0  0  0  0
    3.1965   -2.1242   -0.0908 H   0  0  0  0  0  0  0  0  0  0  0  0
    2.0567   -2.2267   -2.9353 H   0  0  0  0  0  0  0  0  0  0  0  0
    3.3261   -3.2566   -2.2872 H   0  0  0  0  0  0  0  0  0  0  0  0
    4.1155   -1.3532   -3.7684 H   0  0  0  0  0  0  0  0  0  0  0  0
    4.1682    0.9574   -2.6479 H   0  0  0  0  0  0  0  0  0  0  0  0
    2.5814    0.3958   -3.1475 H   0  0  0  0  0  0  0  0  0  0  0  0
    3.7180    0.3019   -0.3013 H   0  0  0  0  0  0  0  0  0  0  0  0
    2.5012    1.3985   -0.9573 H   0  0  0  0  0  0  0  0  0  0  0  0
    7.4342   -0.5367   -0.8023 H   0  0  0  0  0  0  0  0  0  0  0  0
    7.9138   -1.6320   -2.1380 H   0  0  0  0  0  0  0  0  0  0  0  0
    8.4384    0.3567   -3.5554 H   0  0  0  0  0  0  0  0  0  0  0  0
    7.9691    1.4298   -2.2424 H   0  0  0  0  0  0  0  0  0  0  0  0
    9.3937    0.3798   -2.0532 H   0  0  0  0  0  0  0  0  0  0  0  0
  1  2  1  0
  2  3  2  0
  3  4  1  0
  4  5  1  0
  5  6  1  0
  6  7  1  0
  7  8  1  0
  8  9  1  0
  8 10  2  0
 10 11  1  0
 11 12  1  0
  7 13  1  0
 13 14  2  0
 13 15  1  0
 15 16  1  0
 16 17  1  0
 17 18  2  0
 18 19  1  0
 18 20  1  0
 20 21  2  0
 21 22  1  0
 22 23  2  0
 16 24  1  0
 24 25  1  0
 25 26  1  0
 26 27  1  0
 27 28  1  0
 28 29  1  0
 27 30  1  0
 30 31  2  0
 30 32  1  0
 32 33  1  0
 33 34  1  0
  5  1  2  0
 15 11  2  0
 23 17  1  0
 29 24  1  0
  1 35  1  0
  2 36  1  0
  3 37  1  0
  6 38  1  0
  6 39  1  0
  9 40  1  0
  9 41  1  0
  9 42  1  0
 10 43  1  0
 12 44  1  0
 16 45  1  0
 20 46  1  0
 21 47  1  0
 22 48  1  0
 23 49  1  0
 25 50  1  0
 25 51  1  0
 26 52  1  0
 26 53  1  0
 27 54  1  0
 28 55  1  0
 28 56  1  0
 29 57  1  0
 29 58  1  0
 33 59  1  0
 33 60  1  0
 34 61  1  0
 34 62  1  0
 34 63  1  0
M  END
>  <mol_id>  (21) 
G747-0544

>  <drugclip_rank>  (21) 
21

>  <conformer>  (21) 
4

>  <align_rmsd>  (21) 
0.753

$$$$
G747-0043
     RDKit          3D

 63 66  0  0  0  0  0  0  0  0999 V2000
    4.3114   -9.9360    0.1301 O   0  0  0  0  0  0  0  0  0  0  0  0
    2.9581  -10.0646    0.5626 C   0  0  0  0  0  0  0  0  0  0  0  0
    2.7436   -9.3725    1.9208 C   0  0  0  0  0  0  0  0  0  0  0  0
    2.4853   -7.9252    1.8160 N   0  0  0  0  0  0  0  0  0  0  0  0
    2.1224   -7.3452    3.1137 C   0  0  0  0  0  0  0  0  0  0  0  0
    1.7233   -5.8481    2.9905 C   0  0  0  0  0  0  0  0  0  0  0  0
    3.6349   -7.1880    1.2519 C   0  0  0  0  0  0  0  0  0  0  0  0
    3.6227   -5.6609    1.5508 C   0  0  0  0  0  0  0  0  0  0  0  0
    2.2499   -5.1520    1.7719 N   0  0  0  0  0  0  0  0  0  0  0  0
    2.1914   -3.6636    1.9545 C   0  0  0  0  0  0  0  0  0  0  0  0
    2.9624   -2.8953    0.8649 C   0  0  0  0  0  0  0  0  0  0  0  0
    2.6705   -3.0607   -0.5040 C   0  0  0  0  0  0  0  0  0  0  0  0
    3.3657   -2.3327   -1.4705 C   0  0  0  0  0  0  0  0  0  0  0  0
    4.3521   -1.4373   -1.0770 C   0  0  0  0  0  0  0  0  0  0  0  0
    5.0226   -0.7433   -2.0056 F   0  0  0  0  0  0  0  0  0  0  0  0
    4.6563   -1.2519    0.2658 C   0  0  0  0  0  0  0  0  0  0  0  0
    3.9604   -1.9747    1.2357 C   0  0  0  0  0  0  0  0  0  0  0  0
    0.7662   -3.1266    1.9853 C   0  0  0  0  0  0  0  0  0  0  0  0
    0.5692   -1.8515    2.7486 C   0  0  0  0  0  0  0  0  0  0  0  0
    1.5122   -1.3765    3.3832 O   0  0  0  0  0  0  0  0  0  0  0  0
   -0.6971   -1.2525    2.6900 N   0  0  0  0  0  0  0  0  0  0  0  0
   -1.7744   -1.8616    2.0362 C   0  0  0  0  0  0  0  0  0  0  0  0
   -3.1323   -1.2149    2.0245 C   0  0  0  0  0  0  0  0  0  0  0  0
   -1.5925   -3.0400    1.4200 C   0  0  0  0  0  0  0  0  0  0  0  0
   -0.3056   -3.6668    1.3811 C   0  0  0  0  0  0  0  0  0  0  0  0
   -0.2771   -4.8333    0.6468 O   0  0  0  0  0  0  0  0  0  0  0  0
   -0.8284    0.0697    3.3175 C   0  0  0  0  0  0  0  0  0  0  0  0
   -0.7561    1.2133    2.3246 C   0  0  0  0  0  0  0  0  0  0  0  0
   -1.7957    2.1523    2.2440 C   0  0  0  0  0  0  0  0  0  0  0  0
   -1.7428    3.1960    1.3187 C   0  0  0  0  0  0  0  0  0  0  0  0
   -0.6421    3.3263    0.4758 C   0  0  0  0  0  0  0  0  0  0  0  0
    0.4120    2.4180    0.5653 C   0  0  0  0  0  0  0  0  0  0  0  0
    0.3562    1.3696    1.4846 C   0  0  0  0  0  0  0  0  0  0  0  0
    4.3515  -10.3388   -0.7551 H   0  0  0  0  0  0  0  0  0  0  0  0
    2.2961   -9.6536   -0.2061 H   0  0  0  0  0  0  0  0  0  0  0  0
    2.7460  -11.1336    0.6603 H   0  0  0  0  0  0  0  0  0  0  0  0
    3.6024   -9.5638    2.5789 H   0  0  0  0  0  0  0  0  0  0  0  0
    1.8621   -9.8384    2.3813 H   0  0  0  0  0  0  0  0  0  0  0  0
    1.2802   -7.8907    3.5571 H   0  0  0  0  0  0  0  0  0  0  0  0
    2.9677   -7.4353    3.8098 H   0  0  0  0  0  0  0  0  0  0  0  0
    0.6302   -5.8000    2.9752 H   0  0  0  0  0  0  0  0  0  0  0  0
    2.0516   -5.3419    3.9060 H   0  0  0  0  0  0  0  0  0  0  0  0
    4.5851   -7.5900    1.6248 H   0  0  0  0  0  0  0  0  0  0  0  0
    3.6211   -7.3188    0.1641 H   0  0  0  0  0  0  0  0  0  0  0  0
    4.1186   -5.1717    0.7082 H   0  0  0  0  0  0  0  0  0  0  0  0
    4.2327   -5.4630    2.4408 H   0  0  0  0  0  0  0  0  0  0  0  0
    2.6801   -3.4514    2.9151 H   0  0  0  0  0  0  0  0  0  0  0  0
    1.9021   -3.7637   -0.8213 H   0  0  0  0  0  0  0  0  0  0  0  0
    3.1439   -2.4595   -2.5248 H   0  0  0  0  0  0  0  0  0  0  0  0
    5.4299   -0.5446    0.5507 H   0  0  0  0  0  0  0  0  0  0  0  0
    4.1929   -1.8089    2.2869 H   0  0  0  0  0  0  0  0  0  0  0  0
   -3.8831   -1.8565    1.5504 H   0  0  0  0  0  0  0  0  0  0  0  0
   -3.4872   -1.0188    3.0414 H   0  0  0  0  0  0  0  0  0  0  0  0
   -3.1158   -0.2797    1.4591 H   0  0  0  0  0  0  0  0  0  0  0  0
   -2.4042   -3.5432    0.9037 H   0  0  0  0  0  0  0  0  0  0  0  0
    0.6220   -5.2212    0.7509 H   0  0  0  0  0  0  0  0  0  0  0  0
   -1.7618    0.0993    3.8901 H   0  0  0  0  0  0  0  0  0  0  0  0
   -0.0361    0.2237    4.0596 H   0  0  0  0  0  0  0  0  0  0  0  0
   -2.6607    2.0713    2.8960 H   0  0  0  0  0  0  0  0  0  0  0  0
   -2.5619    3.9080    1.2538 H   0  0  0  0  0  0  0  0  0  0  0  0
   -0.6019    4.1373   -0.2454 H   0  0  0  0  0  0  0  0  0  0  0  0
    1.2774    2.5222   -0.0843 H   0  0  0  0  0  0  0  0  0  0  0  0
    1.1917    0.6735    1.5441 H   0  0  0  0  0  0  0  0  0  0  0  0
  1  2  1  0
  2  3  1  0
  3  4  1  0
  4  5  1  0
  5  6  1  0
  4  7  1  0
  7  8  1  0
  8  9  1  0
  9 10  1  0
 10 11  1  0
 11 12  2  0
 12 13  1  0
 13 14  2  0
 14 15  1  0
 14 16  1  0
 16 17  2  0
 10 18  1  0
 18 19  1  0
 19 20  2  0
 19 21  1  0
 21 22  1  0
 22 23  1  0
 22 24  2  0
 24 25  1  0
 25 26  1  0
 21 27  1  0
 27 28  1  0
 28 29  2  0
 29 30  1  0
 30 31  2  0
 31 32  1  0
 32 33  2  0
  9  6  1  0
 17 11  1  0
 25 18  2  0
 33 28  1  0
  1 34  1  0
  2 35  1  0
  2 36  1  0
  3 37  1  0
  3 38  1  0
  5 39  1  0
  5 40  1  0
  6 41  1  0
  6 42  1  0
  7 43  1  0
  7 44  1  0
  8 45  1  0
  8 46  1  0
 10 47  1  0
 12 48  1  0
 13 49  1  0
 16 50  1  0
 17 51  1  0
 23 52  1  0
 23 53  1  0
 23 54  1  0
 24 55  1  0
 26 56  1  0
 27 57  1  0
 27 58  1  0
 29 59  1  0
 30 60  1  0
 31 61  1  0
 32 62  1  0
 33 63  1  0
M  END
>  <mol_id>  (22) 
G747-0043

>  <drugclip_rank>  (22) 
22

>  <conformer>  (22) 
7

>  <align_rmsd>  (22) 
0.744

$$$$
STK618230
     RDKit          3D

 54 58  0  0  0  0  0  0  0  0999 V2000
   -0.7638    2.7087    0.0289 C   0  0  0  0  0  0  0  0  0  0  0  0
    0.5352    3.2058    0.1544 C   0  0  0  0  0  0  0  0  0  0  0  0
    1.0326    3.5539    1.4089 C   0  0  0  0  0  0  0  0  0  0  0  0
    0.2317    3.4091    2.5394 C   0  0  0  0  0  0  0  0  0  0  0  0
   -1.0664    2.9119    2.4168 C   0  0  0  0  0  0  0  0  0  0  0  0
   -1.5767    2.5510    1.1613 C   0  0  0  0  0  0  0  0  0  0  0  0
   -2.9805    1.9933    1.0437 C   0  0  0  0  0  0  0  0  0  0  0  0
   -3.1632    0.7203    1.8008 N   0  0  0  0  0  0  0  0  0  0  0  0
   -4.7756    0.3444    2.1802 S   0  0  0  0  0  0  0  0  0  0  0  0
   -4.7670   -0.7937    3.0752 O   0  0  0  0  0  0  0  0  0  0  0  0
   -5.4887    1.5626    2.4862 O   0  0  0  0  0  0  0  0  0  0  0  0
   -2.3299   -0.4324    1.2440 C   0  0  0  0  0  0  0  0  0  0  0  0
   -3.1673   -1.6060    0.6220 C   0  0  0  0  0  0  0  0  0  0  0  0
   -3.4926   -2.6278    1.5636 O   0  0  0  0  0  0  0  0  0  0  0  0
   -4.4510   -1.1613   -0.0462 C   0  0  0  0  0  0  0  0  0  0  0  0
   -5.3062   -0.2568    0.6049 C   0  0  0  0  0  0  0  0  0  0  0  0
   -4.8428   -1.6608   -1.2923 C   0  0  0  0  0  0  0  0  0  0  0  0
   -6.0415   -1.2355   -1.8736 C   0  0  0  0  0  0  0  0  0  0  0  0
   -6.8644   -0.3162   -1.2164 C   0  0  0  0  0  0  0  0  0  0  0  0
   -6.4996    0.1805    0.0327 C   0  0  0  0  0  0  0  0  0  0  0  0
   -1.3495   -0.8830    2.3501 C   0  0  0  0  0  0  0  0  0  0  0  0
   -0.1454   -1.6388    1.8358 C   0  0  0  0  0  0  0  0  0  0  0  0
    0.9793   -0.9916    1.4969 C   0  0  0  0  0  0  0  0  0  0  0  0
   -0.2406   -3.1440    1.7578 C   0  0  0  0  0  0  0  0  0  0  0  0
    0.9930   -3.8599    1.5939 O   0  0  0  0  0  0  0  0  0  0  0  0
    2.0599   -3.1687    1.0933 C   0  0  0  0  0  0  0  0  0  0  0  0
    2.1083   -1.7751    1.0223 C   0  0  0  0  0  0  0  0  0  0  0  0
    3.1525   -3.9308    0.6804 C   0  0  0  0  0  0  0  0  0  0  0  0
    4.2936   -3.3035    0.1796 C   0  0  0  0  0  0  0  0  0  0  0  0
    4.3450   -1.9125    0.1003 C   0  0  0  0  0  0  0  0  0  0  0  0
    3.2562   -1.1485    0.5235 C   0  0  0  0  0  0  0  0  0  0  0  0
   -1.1340    2.4447   -0.9588 H   0  0  0  0  0  0  0  0  0  0  0  0
    1.1620    3.3230   -0.7268 H   0  0  0  0  0  0  0  0  0  0  0  0
    2.0439    3.9418    1.5053 H   0  0  0  0  0  0  0  0  0  0  0  0
    0.6174    3.6825    3.5187 H   0  0  0  0  0  0  0  0  0  0  0  0
   -1.6814    2.7952    3.3080 H   0  0  0  0  0  0  0  0  0  0  0  0
   -3.6513    2.7714    1.4240 H   0  0  0  0  0  0  0  0  0  0  0  0
   -3.2398    1.8329   -0.0100 H   0  0  0  0  0  0  0  0  0  0  0  0
   -1.7504   -0.0281    0.4027 H   0  0  0  0  0  0  0  0  0  0  0  0
   -2.5318   -2.0888   -0.1298 H   0  0  0  0  0  0  0  0  0  0  0  0
   -3.9927   -2.2236    2.3058 H   0  0  0  0  0  0  0  0  0  0  0  0
   -4.2266   -2.3893   -1.8158 H   0  0  0  0  0  0  0  0  0  0  0  0
   -6.3409   -1.6305   -2.8425 H   0  0  0  0  0  0  0  0  0  0  0  0
   -7.7959    0.0031   -1.6782 H   0  0  0  0  0  0  0  0  0  0  0  0
   -7.1429    0.8886    0.5495 H   0  0  0  0  0  0  0  0  0  0  0  0
   -1.8644   -1.4690    3.1212 H   0  0  0  0  0  0  0  0  0  0  0  0
   -0.9871    0.0030    2.8894 H   0  0  0  0  0  0  0  0  0  0  0  0
    1.0729    0.0876    1.5605 H   0  0  0  0  0  0  0  0  0  0  0  0
   -0.6931   -3.5281    2.6781 H   0  0  0  0  0  0  0  0  0  0  0  0
   -0.8901   -3.4336    0.9262 H   0  0  0  0  0  0  0  0  0  0  0  0
    3.1131   -5.0141    0.7514 H   0  0  0  0  0  0  0  0  0  0  0  0
    5.1426   -3.8999   -0.1410 H   0  0  0  0  0  0  0  0  0  0  0  0
    5.2360   -1.4225   -0.2828 H   0  0  0  0  0  0  0  0  0  0  0  0
    3.3138   -0.0644    0.4672 H   0  0  0  0  0  0  0  0  0  0  0  0
  1  2  2  0
  2  3  1  0
  3  4  2  0
  4  5  1  0
  5  6  2  0
  6  7  1  0
  7  8  1  0
  8  9  1  0
  9 10  2  0
  9 11  2  0
  8 12  1  0
 12 13  1  0
 13 14  1  0
 13 15  1  0
 15 16  2  0
 15 17  1  0
 17 18  2  0
 18 19  1  0
 19 20  2  0
 12 21  1  0
 21 22  1  0
 22 23  2  0
 22 24  1  0
 24 25  1  0
 25 26  1  0
 26 27  2  0
 26 28  1  0
 28 29  2  0
 29 30  1  0
 30 31  2  0
  6  1  1  0
 16  9  1  0
 20 16  1  0
 27 23  1  0
 31 27  1  0
  1 32  1  0
  2 33  1  0
  3 34  1  0
  4 35  1  0
  5 36  1  0
  7 37  1  0
  7 38  1  0
 12 39  1  0
 13 40  1  0
 14 41  1  0
 17 42  1  0
 18 43  1  0
 19 44  1  0
 20 45  1  0
 21 46  1  0
 21 47  1  0
 23 48  1  0
 24 49  1  0
 24 50  1  0
 28 51  1  0
 29 52  1  0
 30 53  1  0
 31 54  1  0
M  END
>  <mol_id>  (23) 
STK618230

>  <drugclip_rank>  (23) 
23

>  <conformer>  (23) 
1

>  <align_rmsd>  (23) 
1.02

$$$$
G747-0004
     RDKit          3D

 63 66  0  0  0  0  0  0  0  0999 V2000
   -5.0129   -0.5310    9.3071 O   0  0  0  0  0  0  0  0  0  0  0  0
   -5.7177   -0.9290    8.1328 C   0  0  0  0  0  0  0  0  0  0  0  0
   -5.3592    0.0047    6.9669 C   0  0  0  0  0  0  0  0  0  0  0  0
   -3.8967    0.1631    6.8106 N   0  0  0  0  0  0  0  0  0  0  0  0
   -3.2545   -1.0712    6.3110 C   0  0  0  0  0  0  0  0  0  0  0  0
   -1.7460   -0.8776    6.0230 C   0  0  0  0  0  0  0  0  0  0  0  0
   -3.6032    1.2865    5.8945 C   0  0  0  0  0  0  0  0  0  0  0  0
   -2.0927    1.4396    5.5929 C   0  0  0  0  0  0  0  0  0  0  0  0
   -1.4284    0.2173    5.0810 N   0  0  0  0  0  0  0  0  0  0  0  0
   -1.7999   -0.0990    3.6704 C   0  0  0  0  0  0  0  0  0  0  0  0
   -1.4519    1.0196    2.6702 C   0  0  0  0  0  0  0  0  0  0  0  0
   -0.2443    1.7333    2.7375 C   0  0  0  0  0  0  0  0  0  0  0  0
    0.0561    2.7231    1.8001 C   0  0  0  0  0  0  0  0  0  0  0  0
   -0.8443    3.0124    0.7776 C   0  0  0  0  0  0  0  0  0  0  0  0
   -2.0442    2.3102    0.6888 C   0  0  0  0  0  0  0  0  0  0  0  0
   -2.3450    1.3186    1.6250 C   0  0  0  0  0  0  0  0  0  0  0  0
   -1.2957   -1.4344    3.1281 C   0  0  0  0  0  0  0  0  0  0  0  0
    0.1776   -1.7258    3.1323 C   0  0  0  0  0  0  0  0  0  0  0  0
    0.9777   -0.9413    3.6388 O   0  0  0  0  0  0  0  0  0  0  0  0
    0.5967   -2.9285    2.5347 N   0  0  0  0  0  0  0  0  0  0  0  0
   -0.3059   -3.8568    2.0104 C   0  0  0  0  0  0  0  0  0  0  0  0
    0.1851   -5.1459    1.4085 C   0  0  0  0  0  0  0  0  0  0  0  0
   -1.6216   -3.5968    2.0558 C   0  0  0  0  0  0  0  0  0  0  0  0
   -2.1148   -2.3649    2.6075 C   0  0  0  0  0  0  0  0  0  0  0  0
   -3.4817   -2.1811    2.5520 O   0  0  0  0  0  0  0  0  0  0  0  0
    2.0487   -3.1573    2.4778 C   0  0  0  0  0  0  0  0  0  0  0  0
    2.6626   -2.8501    1.1263 C   0  0  0  0  0  0  0  0  0  0  0  0
    2.4628   -1.6074    0.5059 C   0  0  0  0  0  0  0  0  0  0  0  0
    3.0486   -1.3262   -0.7295 C   0  0  0  0  0  0  0  0  0  0  0  0
    3.8503   -2.2783   -1.3551 C   0  0  0  0  0  0  0  0  0  0  0  0
    4.0722   -3.5101   -0.7432 C   0  0  0  0  0  0  0  0  0  0  0  0
    3.4871   -3.7930    0.4927 C   0  0  0  0  0  0  0  0  0  0  0  0
   -4.1630   -0.1718    8.9780 H   0  0  0  0  0  0  0  0  0  0  0  0
   -6.7902   -0.8826    8.3442 H   0  0  0  0  0  0  0  0  0  0  0  0
   -5.4607   -1.9692    7.9120 H   0  0  0  0  0  0  0  0  0  0  0  0
   -5.8335   -0.3422    6.0411 H   0  0  0  0  0  0  0  0  0  0  0  0
   -5.7846    0.9878    7.2067 H   0  0  0  0  0  0  0  0  0  0  0  0
   -3.7603   -1.4309    5.4067 H   0  0  0  0  0  0  0  0  0  0  0  0
   -3.3415   -1.8616    7.0649 H   0  0  0  0  0  0  0  0  0  0  0  0
   -1.2391   -0.6585    6.9733 H   0  0  0  0  0  0  0  0  0  0  0  0
   -1.3110   -1.8281    5.6951 H   0  0  0  0  0  0  0  0  0  0  0  0
   -4.1557    1.1704    4.9536 H   0  0  0  0  0  0  0  0  0  0  0  0
   -3.9490    2.2204    6.3546 H   0  0  0  0  0  0  0  0  0  0  0  0
   -1.5840    1.7280    6.5233 H   0  0  0  0  0  0  0  0  0  0  0  0
   -1.9456    2.2926    4.9222 H   0  0  0  0  0  0  0  0  0  0  0  0
   -2.8959   -0.1426    3.6626 H   0  0  0  0  0  0  0  0  0  0  0  0
    0.4714    1.5168    3.5297 H   0  0  0  0  0  0  0  0  0  0  0  0
    0.9962    3.2634    1.8713 H   0  0  0  0  0  0  0  0  0  0  0  0
   -0.6080    3.7825    0.0484 H   0  0  0  0  0  0  0  0  0  0  0  0
   -2.7443    2.5316   -0.1124 H   0  0  0  0  0  0  0  0  0  0  0  0
   -3.2816    0.7726    1.5335 H   0  0  0  0  0  0  0  0  0  0  0  0
    0.7718   -5.7212    2.1312 H   0  0  0  0  0  0  0  0  0  0  0  0
   -0.6449   -5.7899    1.0955 H   0  0  0  0  0  0  0  0  0  0  0  0
    0.7897   -4.9576    0.5174 H   0  0  0  0  0  0  0  0  0  0  0  0
   -2.3303   -4.3159    1.6593 H   0  0  0  0  0  0  0  0  0  0  0  0
   -3.8818   -2.8940    2.0258 H   0  0  0  0  0  0  0  0  0  0  0  0
    2.2501   -4.1930    2.7747 H   0  0  0  0  0  0  0  0  0  0  0  0
    2.5692   -2.5452    3.2244 H   0  0  0  0  0  0  0  0  0  0  0  0
    1.8532   -0.8432    0.9854 H   0  0  0  0  0  0  0  0  0  0  0  0
    2.8820   -0.3595   -1.1978 H   0  0  0  0  0  0  0  0  0  0  0  0
    4.3081   -2.0562   -2.3152 H   0  0  0  0  0  0  0  0  0  0  0  0
    4.7059   -4.2491   -1.2266 H   0  0  0  0  0  0  0  0  0  0  0  0
    3.6796   -4.7571    0.9576 H   0  0  0  0  0  0  0  0  0  0  0  0
  1  2  1  0
  2  3  1  0
  3  4  1  0
  4  5  1  0
  5  6  1  0
  4  7  1  0
  7  8  1  0
  8  9  1  0
  9 10  1  0
 10 11  1  0
 11 12  2  0
 12 13  1  0
 13 14  2  0
 14 15  1  0
 15 16  2  0
 10 17  1  0
 17 18  1  0
 18 19  2  0
 18 20  1  0
 20 21  1  0
 21 22  1  0
 21 23  2  0
 23 24  1  0
 24 25  1  0
 20 26  1  0
 26 27  1  0
 27 28  2  0
 28 29  1  0
 29 30  2  0
 30 31  1  0
 31 32  2  0
  9  6  1  0
 16 11  1  0
 24 17  2  0
 32 27  1  0
  1 33  1  0
  2 34  1  0
  2 35  1  0
  3 36  1  0
  3 37  1  0
  5 38  1  0
  5 39  1  0
  6 40  1  0
  6 41  1  0
  7 42  1  0
  7 43  1  0
  8 44  1  0
  8 45  1  0
 10 46  1  0
 12 47  1  0
 13 48  1  0
 14 49  1  0
 15 50  1  0
 16 51  1  0
 22 52  1  0
 22 53  1  0
 22 54  1  0
 23 55  1  0
 25 56  1  0
 26 57  1  0
 26 58  1  0
 28 59  1  0
 29 60  1  0
 30 61  1  0
 31 62  1  0
 32 63  1  0
M  END
>  <mol_id>  (24) 
G747-0004

>  <drugclip_rank>  (24) 
24

>  <conformer>  (24) 
9

>  <align_rmsd>  (24) 
1.186

$$$$
G747-0011
     RDKit          3D

 70 73  0  0  0  0  0  0  0  0999 V2000
   -7.1343    1.2951    9.5750 C   0  0  0  0  0  0  0  0  0  0  0  0
   -6.4988   -0.0211    9.1671 C   0  0  0  0  0  0  0  0  0  0  0  0
   -5.6696    0.1653    8.0109 O   0  0  0  0  0  0  0  0  0  0  0  0
   -4.3936    0.5692    8.2474 C   0  0  0  0  0  0  0  0  0  0  0  0
   -3.9174    0.7635    9.3596 O   0  0  0  0  0  0  0  0  0  0  0  0
   -3.5883    0.7060    6.9703 C   0  0  0  0  0  0  0  0  0  0  0  0
   -2.7354   -0.5441    6.7668 C   0  0  0  0  0  0  0  0  0  0  0  0
   -1.9025   -0.4504    5.4857 C   0  0  0  0  0  0  0  0  0  0  0  0
   -4.4346    0.9685    5.7224 C   0  0  0  0  0  0  0  0  0  0  0  0
   -3.5537    1.0454    4.4766 C   0  0  0  0  0  0  0  0  0  0  0  0
   -2.7553   -0.1770    4.3264 N   0  0  0  0  0  0  0  0  0  0  0  0
   -2.0975   -0.2950    2.9982 C   0  0  0  0  0  0  0  0  0  0  0  0
   -1.3043    0.8810    2.4083 C   0  0  0  0  0  0  0  0  0  0  0  0
   -0.5725    1.8061    3.1669 C   0  0  0  0  0  0  0  0  0  0  0  0
    0.1471    2.8480    2.5672 C   0  0  0  0  0  0  0  0  0  0  0  0
    0.7839    3.6808    3.4491 O   0  0  0  0  0  0  0  0  0  0  0  0
    1.5634    4.7314    2.8930 C   0  0  0  0  0  0  0  0  0  0  0  0
    0.1600    2.9644    1.1788 C   0  0  0  0  0  0  0  0  0  0  0  0
   -0.5431    2.0481    0.3981 C   0  0  0  0  0  0  0  0  0  0  0  0
   -1.2674    1.0210    1.0051 C   0  0  0  0  0  0  0  0  0  0  0  0
   -1.4835   -1.6617    2.7409 C   0  0  0  0  0  0  0  0  0  0  0  0
   -0.0029   -1.8360    2.8976 C   0  0  0  0  0  0  0  0  0  0  0  0
    0.6559   -0.9956    3.5088 O   0  0  0  0  0  0  0  0  0  0  0  0
    0.5730   -2.9833    2.3312 N   0  0  0  0  0  0  0  0  0  0  0  0
   -0.2066   -4.0279    1.8241 C   0  0  0  0  0  0  0  0  0  0  0  0
    0.4367   -5.2680    1.2695 C   0  0  0  0  0  0  0  0  0  0  0  0
   -1.5441   -3.9226    1.8522 C   0  0  0  0  0  0  0  0  0  0  0  0
   -2.1846   -2.7248    2.3098 C   0  0  0  0  0  0  0  0  0  0  0  0
   -3.5568   -2.7691    2.2186 O   0  0  0  0  0  0  0  0  0  0  0  0
    2.0403   -3.0408    2.3207 C   0  0  0  0  0  0  0  0  0  0  0  0
    2.6448   -2.5988    1.0025 C   0  0  0  0  0  0  0  0  0  0  0  0
    2.4093   -1.3099    0.4990 C   0  0  0  0  0  0  0  0  0  0  0  0
    2.9782   -0.9013   -0.7085 C   0  0  0  0  0  0  0  0  0  0  0  0
    3.7978   -1.7713   -1.4234 C   0  0  0  0  0  0  0  0  0  0  0  0
    4.0538   -3.0481   -0.9284 C   0  0  0  0  0  0  0  0  0  0  0  0
    3.4849   -3.4582    0.2793 C   0  0  0  0  0  0  0  0  0  0  0  0
   -7.6776    1.7374    8.7336 H   0  0  0  0  0  0  0  0  0  0  0  0
   -6.3746    2.0218    9.8798 H   0  0  0  0  0  0  0  0  0  0  0  0
   -7.8284    1.1471   10.4075 H   0  0  0  0  0  0  0  0  0  0  0  0
   -7.2808   -0.7347    8.8868 H   0  0  0  0  0  0  0  0  0  0  0  0
   -5.9351   -0.4703    9.9933 H   0  0  0  0  0  0  0  0  0  0  0  0
   -2.9321    1.5751    7.1161 H   0  0  0  0  0  0  0  0  0  0  0  0
   -2.0698   -0.6927    7.6258 H   0  0  0  0  0  0  0  0  0  0  0  0
   -3.3803   -1.4320    6.7226 H   0  0  0  0  0  0  0  0  0  0  0  0
   -1.1319    0.3121    5.6214 H   0  0  0  0  0  0  0  0  0  0  0  0
   -1.3904   -1.4120    5.3769 H   0  0  0  0  0  0  0  0  0  0  0  0
   -4.9968    1.9030    5.8376 H   0  0  0  0  0  0  0  0  0  0  0  0
   -5.1768    0.1714    5.5835 H   0  0  0  0  0  0  0  0  0  0  0  0
   -4.2128    1.1745    3.6096 H   0  0  0  0  0  0  0  0  0  0  0  0
   -2.9233    1.9383    4.5435 H   0  0  0  0  0  0  0  0  0  0  0  0
   -2.9782   -0.2817    2.3343 H   0  0  0  0  0  0  0  0  0  0  0  0
   -0.5329    1.7309    4.2476 H   0  0  0  0  0  0  0  0  0  0  0  0
    0.9399    5.4266    2.3203 H   0  0  0  0  0  0  0  0  0  0  0  0
    2.0088    5.2907    3.7214 H   0  0  0  0  0  0  0  0  0  0  0  0
    2.3817    4.3361    2.2808 H   0  0  0  0  0  0  0  0  0  0  0  0
    0.7096    3.7512    0.6743 H   0  0  0  0  0  0  0  0  0  0  0  0
   -0.5245    2.1302   -0.6862 H   0  0  0  0  0  0  0  0  0  0  0  0
   -1.8011    0.3155    0.3690 H   0  0  0  0  0  0  0  0  0  0  0  0
    1.0381   -5.0325    0.3887 H   0  0  0  0  0  0  0  0  0  0  0  0
    1.0650   -5.7564    2.0194 H   0  0  0  0  0  0  0  0  0  0  0  0
   -0.3081   -6.0067    0.9526 H   0  0  0  0  0  0  0  0  0  0  0  0
   -2.1836   -4.7173    1.4783 H   0  0  0  0  0  0  0  0  0  0  0  0
   -3.9206   -2.1058    2.8351 H   0  0  0  0  0  0  0  0  0  0  0  0
    2.3641   -4.0540    2.5842 H   0  0  0  0  0  0  0  0  0  0  0  0
    2.4570   -2.4003    3.1072 H   0  0  0  0  0  0  0  0  0  0  0  0
    1.7874   -0.6071    1.0519 H   0  0  0  0  0  0  0  0  0  0  0  0
    2.7857    0.1003   -1.0837 H   0  0  0  0  0  0  0  0  0  0  0  0
    4.2427   -1.4515   -2.3624 H   0  0  0  0  0  0  0  0  0  0  0  0
    4.7016   -3.7236   -1.4808 H   0  0  0  0  0  0  0  0  0  0  0  0
    3.7059   -4.4547    0.6523 H   0  0  0  0  0  0  0  0  0  0  0  0
  1  2  1  0
  2  3  1  0
  3  4  1  0
  4  5  2  0
  4  6  1  0
  6  7  1  0
  7  8  1  0
  6  9  1  0
  9 10  1  0
 10 11  1  0
 11 12  1  0
 12 13  1  0
 13 14  2  0
 14 15  1  0
 15 16  1  0
 16 17  1  0
 15 18  2  0
 18 19  1  0
 19 20  2  0
 12 21  1  0
 21 22  1  0
 22 23  2  0
 22 24  1  0
 24 25  1  0
 25 26  1  0
 25 27  2  0
 27 28  1  0
 28 29  1  0
 24 30  1  0
 30 31  1  0
 31 32  2  0
 32 33  1  0
 33 34  2  0
 34 35  1  0
 35 36  2  0
 11  8  1  0
 20 13  1  0
 28 21  2  0
 36 31  1  0
  1 37  1  0
  1 38  1  0
  1 39  1  0
  2 40  1  0
  2 41  1  0
  6 42  1  0
  7 43  1  0
  7 44  1  0
  8 45  1  0
  8 46  1  0
  9 47  1  0
  9 48  1  0
 10 49  1  0
 10 50  1  0
 12 51  1  0
 14 52  1  0
 17 53  1  0
 17 54  1  0
 17 55  1  0
 18 56  1  0
 19 57  1  0
 20 58  1  0
 26 59  1  0
 26 60  1  0
 26 61  1  0
 27 62  1  0
 29 63  1  0
 30 64  1  0
 30 65  1  0
 32 66  1  0
 33 67  1  0
 34 68  1  0
 35 69  1  0
 36 70  1  0
M  END
>  <mol_id>  (25) 
G747-0011

>  <drugclip_rank>  (25) 
25

>  <conformer>  (25) 
20

>  <align_rmsd>  (25) 
0.922

$$$$
Z4984251678
     RDKit          3D

 54 56  0  0  0  0  0  0  0  0999 V2000
   -3.6820   -1.7045   -0.6250 C   0  0  0  0  0  0  0  0  0  0  0  0
   -4.5148   -0.4275   -0.4952 C   0  0  0  0  0  0  0  0  0  0  0  0
   -4.5717    0.2867   -1.8482 C   0  0  0  0  0  0  0  0  0  0  0  0
   -3.9582    0.5298    0.5733 C   0  0  0  0  0  0  0  0  0  0  0  0
   -4.0208   -0.0347    1.9953 C   0  0  0  0  0  0  0  0  0  0  0  0
   -3.4531    0.8775    2.9883 N   0  0  0  0  0  0  0  0  0  0  0  0
   -4.2534    2.0488    3.1001 O   0  0  0  0  0  0  0  0  0  0  0  0
   -4.8424    2.0669    4.3989 C   0  0  0  0  0  0  0  0  0  0  0  0
   -2.1069    1.1086    3.2339 C   0  0  0  0  0  0  0  0  0  0  0  0
   -1.6623    2.1476    3.7244 O   0  0  0  0  0  0  0  0  0  0  0  0
   -1.1777   -0.0242    2.9596 C   0  0  0  0  0  0  0  0  0  0  0  0
   -1.3756   -1.2753    3.7324 C   0  0  0  0  0  0  0  0  0  0  0  0
   -2.2523   -1.3907    4.5840 O   0  0  0  0  0  0  0  0  0  0  0  0
   -0.5541   -2.3218    3.4188 N   0  0  0  0  0  0  0  0  0  0  0  0
    0.4793   -2.2795    2.5472 N   0  0  0  0  0  0  0  0  0  0  0  0
    0.6858   -1.1580    1.9279 C   0  0  0  0  0  0  0  0  0  0  0  0
    1.8537   -1.1090    1.0100 C   0  0  0  0  0  0  0  0  0  0  0  0
    2.8924   -0.1955    1.2151 C   0  0  0  0  0  0  0  0  0  0  0  0
    3.9815   -0.1817    0.3429 C   0  0  0  0  0  0  0  0  0  0  0  0
    4.0404   -1.0881   -0.7169 C   0  0  0  0  0  0  0  0  0  0  0  0
    3.0164   -2.0176   -0.9040 C   0  0  0  0  0  0  0  0  0  0  0  0
    1.9240   -2.0350   -0.0367 C   0  0  0  0  0  0  0  0  0  0  0  0
   -0.1714    0.0730    2.0644 C   0  0  0  0  0  0  0  0  0  0  0  0
    0.0380    1.2539    1.1983 C   0  0  0  0  0  0  0  0  0  0  0  0
    0.5228    2.4610    1.7181 C   0  0  0  0  0  0  0  0  0  0  0  0
    0.7368    3.5589    0.8821 C   0  0  0  0  0  0  0  0  0  0  0  0
    0.4779    3.4589   -0.4830 C   0  0  0  0  0  0  0  0  0  0  0  0
    0.0041    2.2619   -1.0146 C   0  0  0  0  0  0  0  0  0  0  0  0
   -0.2136    1.1645   -0.1792 C   0  0  0  0  0  0  0  0  0  0  0  0
   -3.7319   -2.3094    0.2850 H   0  0  0  0  0  0  0  0  0  0  0  0
   -2.6300   -1.4746   -0.8247 H   0  0  0  0  0  0  0  0  0  0  0  0
   -4.0528   -2.3276   -1.4461 H   0  0  0  0  0  0  0  0  0  0  0  0
   -5.5387   -0.7092   -0.2190 H   0  0  0  0  0  0  0  0  0  0  0  0
   -5.1982    1.1831   -1.7895 H   0  0  0  0  0  0  0  0  0  0  0  0
   -3.5728    0.5917   -2.1789 H   0  0  0  0  0  0  0  0  0  0  0  0
   -4.9985   -0.3670   -2.6163 H   0  0  0  0  0  0  0  0  0  0  0  0
   -4.5276    1.4678    0.5415 H   0  0  0  0  0  0  0  0  0  0  0  0
   -2.9274    0.7972    0.3256 H   0  0  0  0  0  0  0  0  0  0  0  0
   -3.4855   -0.9841    2.0516 H   0  0  0  0  0  0  0  0  0  0  0  0
   -5.0624   -0.2242    2.2785 H   0  0  0  0  0  0  0  0  0  0  0  0
   -5.4770    2.9540    4.4729 H   0  0  0  0  0  0  0  0  0  0  0  0
   -5.4647    1.1790    4.5489 H   0  0  0  0  0  0  0  0  0  0  0  0
   -4.0720    2.1239    5.1740 H   0  0  0  0  0  0  0  0  0  0  0  0
   -0.6723   -3.1830    3.9435 H   0  0  0  0  0  0  0  0  0  0  0  0
    2.8672    0.5007    2.0487 H   0  0  0  0  0  0  0  0  0  0  0  0
    4.7876    0.5324    0.4924 H   0  0  0  0  0  0  0  0  0  0  0  0
    4.8924   -1.0765   -1.3926 H   0  0  0  0  0  0  0  0  0  0  0  0
    3.0737   -2.7319   -1.7215 H   0  0  0  0  0  0  0  0  0  0  0  0
    1.1341   -2.7687   -0.1760 H   0  0  0  0  0  0  0  0  0  0  0  0
    0.7268    2.5651    2.7825 H   0  0  0  0  0  0  0  0  0  0  0  0
    1.0990    4.4944    1.3011 H   0  0  0  0  0  0  0  0  0  0  0  0
    0.6428    4.3157   -1.1312 H   0  0  0  0  0  0  0  0  0  0  0  0
   -0.1960    2.1828   -2.0800 H   0  0  0  0  0  0  0  0  0  0  0  0
   -0.5792    0.2388   -0.6180 H   0  0  0  0  0  0  0  0  0  0  0  0
  1  2  1  0
  2  3  1  0
  2  4  1  0
  4  5  1  0
  5  6  1  0
  6  7  1  0
  7  8  1  0
  6  9  1  0
  9 10  2  0
  9 11  1  0
 11 12  1  0
 12 13  2  0
 12 14  1  0
 14 15  1  0
 15 16  2  0
 16 17  1  0
 17 18  2  0
 18 19  1  0
 19 20  2  0
 20 21  1  0
 21 22  2  0
 16 23  1  0
 23 24  1  0
 24 25  2  0
 25 26  1  0
 26 27  2  0
 27 28  1  0
 28 29  2  0
 23 11  2  0
 22 17  1  0
 29 24  1  0
  1 30  1  0
  1 31  1  0
  1 32  1  0
  2 33  1  0
  3 34  1  0
  3 35  1  0
  3 36  1  0
  4 37  1  0
  4 38  1  0
  5 39  1  0
  5 40  1  0
  8 41  1  0
  8 42  1  0
  8 43  1  0
 14 44  1  0
 18 45  1  0
 19 46  1  0
 20 47  1  0
 21 48  1  0
 22 49  1  0
 25 50  1  0
 26 51  1  0
 27 52  1  0
 28 53  1  0
 29 54  1  0
M  END
>  <mol_id>  (26) 
Z4984251678

>  <drugclip_rank>  (26) 
26

>  <conformer>  (26) 
32

>  <align_rmsd>  (26) 
0.776

$$$$
OSSM_141283
     RDKit          3D

 63 68  0  0  0  0  0  0  0  0999 V2000
   -1.5055   -3.9801    6.9779 C   0  0  0  0  0  0  0  0  0  0  0  0
   -2.3743   -3.9138    8.0674 C   0  0  0  0  0  0  0  0  0  0  0  0
   -3.7338   -3.6784    7.8649 C   0  0  0  0  0  0  0  0  0  0  0  0
   -4.2249   -3.5068    6.5726 C   0  0  0  0  0  0  0  0  0  0  0  0
   -3.3577   -3.5710    5.4798 C   0  0  0  0  0  0  0  0  0  0  0  0
   -1.9899   -3.8158    5.6724 C   0  0  0  0  0  0  0  0  0  0  0  0
   -1.0413   -3.8453    4.4987 C   0  0  0  0  0  0  0  0  0  0  0  0
   -0.5113   -2.5282    4.2235 N   0  0  0  0  0  0  0  0  0  0  0  0
   -1.0939   -1.6342    3.3776 C   0  0  0  0  0  0  0  0  0  0  0  0
   -2.1200   -1.8005    2.7321 O   0  0  0  0  0  0  0  0  0  0  0  0
    0.6206   -2.0399    4.8083 C   0  0  0  0  0  0  0  0  0  0  0  0
    1.3440   -2.6367    5.5974 O   0  0  0  0  0  0  0  0  0  0  0  0
    0.8553   -0.6390    4.2879 C   0  0  0  0  0  0  0  0  0  0  0  0
   -0.2942   -0.3678    3.3449 C   0  0  0  0  0  0  0  0  0  0  0  0
    2.0740   -0.5877    3.5575 O   0  0  0  0  0  0  0  0  0  0  0  0
    1.7177   -0.6360    2.2026 N   0  0  0  0  0  0  0  0  0  0  0  0
    2.4477   -1.3972    1.2918 C   0  0  0  0  0  0  0  0  0  0  0  0
    3.6008   -2.0799    1.7114 C   0  0  0  0  0  0  0  0  0  0  0  0
    4.3660   -2.8461    0.8258 C   0  0  0  0  0  0  0  0  0  0  0  0
    3.9947   -2.9405   -0.5102 C   0  0  0  0  0  0  0  0  0  0  0  0
    2.8660   -2.2623   -0.9570 C   0  0  0  0  0  0  0  0  0  0  0  0
    2.1060   -1.4958   -0.0650 C   0  0  0  0  0  0  0  0  0  0  0  0
    0.3427   -0.1832    1.9826 C   0  0  0  0  0  0  0  0  0  0  0  0
    0.2665    1.2701    1.5293 C   0  0  0  0  0  0  0  0  0  0  0  0
   -0.9084    1.7786    0.9463 C   0  0  0  0  0  0  0  0  0  0  0  0
   -1.0181    3.1286    0.6020 C   0  0  0  0  0  0  0  0  0  0  0  0
    0.0620    3.9875    0.7903 C   0  0  0  0  0  0  0  0  0  0  0  0
    1.2434    3.5018    1.3391 C   0  0  0  0  0  0  0  0  0  0  0  0
    1.3433    2.1596    1.7089 C   0  0  0  0  0  0  0  0  0  0  0  0
   -2.0124    0.9779    0.7874 O   0  0  0  0  0  0  0  0  0  0  0  0
   -2.3381    0.3845   -0.7121 S   0  0  0  0  0  0  0  0  0  0  0  0
   -1.4869   -0.7688   -0.9453 O   0  0  0  0  0  0  0  0  0  0  0  0
   -2.3856    1.4819   -1.6638 O   0  0  0  0  0  0  0  0  0  0  0  0
   -4.0039   -0.2326   -0.5864 C   0  0  0  0  0  0  0  0  0  0  0  0
   -4.7642   -0.3684   -1.7555 C   0  0  0  0  0  0  0  0  0  0  0  0
   -6.0824   -0.8197   -1.6685 C   0  0  0  0  0  0  0  0  0  0  0  0
   -6.6347   -1.1243   -0.4238 C   0  0  0  0  0  0  0  0  0  0  0  0
   -5.8721   -0.9851    0.7378 C   0  0  0  0  0  0  0  0  0  0  0  0
   -4.5538   -0.5326    0.6603 C   0  0  0  0  0  0  0  0  0  0  0  0
   -0.4440   -4.1537    7.1530 H   0  0  0  0  0  0  0  0  0  0  0  0
   -1.9892   -4.0425    9.0757 H   0  0  0  0  0  0  0  0  0  0  0  0
   -4.4076   -3.6278    8.7154 H   0  0  0  0  0  0  0  0  0  0  0  0
   -5.2841   -3.3184    6.4145 H   0  0  0  0  0  0  0  0  0  0  0  0
   -3.7541   -3.4210    4.4765 H   0  0  0  0  0  0  0  0  0  0  0  0
   -0.2133   -4.5306    4.7120 H   0  0  0  0  0  0  0  0  0  0  0  0
   -1.5545   -4.2277    3.6102 H   0  0  0  0  0  0  0  0  0  0  0  0
    0.8875    0.0693    5.1234 H   0  0  0  0  0  0  0  0  0  0  0  0
   -0.9354    0.4510    3.6858 H   0  0  0  0  0  0  0  0  0  0  0  0
    3.9179   -2.0199    2.7502 H   0  0  0  0  0  0  0  0  0  0  0  0
    5.2531   -3.3608    1.1846 H   0  0  0  0  0  0  0  0  0  0  0  0
    4.5886   -3.5300   -1.2049 H   0  0  0  0  0  0  0  0  0  0  0  0
    2.5743   -2.3170   -2.0029 H   0  0  0  0  0  0  0  0  0  0  0  0
    1.2544   -0.9611   -0.4711 H   0  0  0  0  0  0  0  0  0  0  0  0
   -0.1510   -0.8155    1.2381 H   0  0  0  0  0  0  0  0  0  0  0  0
   -1.9412    3.5190    0.1785 H   0  0  0  0  0  0  0  0  0  0  0  0
   -0.0180    5.0339    0.5083 H   0  0  0  0  0  0  0  0  0  0  0  0
    2.0918    4.1676    1.4827 H   0  0  0  0  0  0  0  0  0  0  0  0
    2.2825    1.8163    2.1409 H   0  0  0  0  0  0  0  0  0  0  0  0
   -4.3384   -0.1314   -2.7272 H   0  0  0  0  0  0  0  0  0  0  0  0
   -6.6798   -0.9360   -2.5718 H   0  0  0  0  0  0  0  0  0  0  0  0
   -7.6622   -1.4770   -0.3588 H   0  0  0  0  0  0  0  0  0  0  0  0
   -6.3037   -1.2273    1.7045 H   0  0  0  0  0  0  0  0  0  0  0  0
   -3.9737   -0.4371    1.5749 H   0  0  0  0  0  0  0  0  0  0  0  0
  1  2  2  0
  2  3  1  0
  3  4  2  0
  4  5  1  0
  5  6  2  0
  6  7  1  0
  7  8  1  0
  8  9  1  0
  9 10  2  0
  8 11  1  0
 11 12  2  0
 11 13  1  0
 13 14  1  0
 13 15  1  0
 15 16  1  0
 16 17  1  0
 17 18  2  0
 18 19  1  0
 19 20  2  0
 20 21  1  0
 21 22  2  0
 16 23  1  0
 23 24  1  0
 24 25  1  0
 25 26  2  0
 26 27  1  0
 27 28  2  0
 28 29  1  0
 25 30  1  0
 30 31  1  0
 31 32  2  0
 31 33  2  0
 31 34  1  0
 34 35  2  0
 35 36  1  0
 36 37  2  0
 37 38  1  0
 38 39  2  0
  6  1  1  0
 14  9  1  0
 23 14  1  0
 22 17  1  0
 29 24  2  0
 39 34  1  0
  1 40  1  0
  2 41  1  0
  3 42  1  0
  4 43  1  0
  5 44  1  0
  7 45  1  0
  7 46  1  0
 13 47  1  0
 14 48  1  0
 18 49  1  0
 19 50  1  0
 20 51  1  0
 21 52  1  0
 22 53  1  0
 23 54  1  0
 26 55  1  0
 27 56  1  0
 28 57  1  0
 29 58  1  0
 35 59  1  0
 36 60  1  0
 37 61  1  0
 38 62  1  0
 39 63  1  0
M  END
>  <mol_id>  (27) 
OSSM_141283

>  <drugclip_rank>  (27) 
27

>  <conformer>  (27) 
3

>  <align_rmsd>  (27) 
1.332

$$$$
OSSM_038313
     RDKit          3D

 55 58  0  0  0  0  0  0  0  0999 V2000
    1.6385   -3.3644    1.4958 C   0  0  0  0  0  0  0  0  0  0  0  0
    2.4791   -4.2143    0.7908 C   0  0  0  0  0  0  0  0  0  0  0  0
    2.0535   -5.3051    0.1041 N   0  0  0  0  0  0  0  0  0  0  0  0
    0.7298   -5.5451    0.1062 C   0  0  0  0  0  0  0  0  0  0  0  0
   -0.1897   -4.7552    0.7780 C   0  0  0  0  0  0  0  0  0  0  0  0
    0.2717   -3.6454    1.5043 C   0  0  0  0  0  0  0  0  0  0  0  0
   -0.6978   -2.7838    2.2783 C   0  0  0  0  0  0  0  0  0  0  0  0
   -1.5724   -1.9905    1.3835 N   0  0  0  0  0  0  0  0  0  0  0  0
   -3.1993   -1.9585    1.8651 S   0  0  0  0  0  0  0  0  0  0  0  0
   -3.2616   -1.2658    3.1334 O   0  0  0  0  0  0  0  0  0  0  0  0
   -3.7048   -3.3057    1.7149 O   0  0  0  0  0  0  0  0  0  0  0  0
   -0.9876   -0.6809    0.9250 C   0  0  0  0  0  0  0  0  0  0  0  0
   -1.7224   -0.2832   -0.3837 C   0  0  0  0  0  0  0  0  0  0  0  0
   -1.4102   -1.2513   -1.3939 O   0  0  0  0  0  0  0  0  0  0  0  0
   -3.2286   -0.2297   -0.3041 C   0  0  0  0  0  0  0  0  0  0  0  0
   -3.9778   -0.9453    0.6445 C   0  0  0  0  0  0  0  0  0  0  0  0
   -3.9283    0.5179   -1.2659 C   0  0  0  0  0  0  0  0  0  0  0  0
   -5.3255    0.5585   -1.2676 C   0  0  0  0  0  0  0  0  0  0  0  0
   -6.0502   -0.1504   -0.3113 C   0  0  0  0  0  0  0  0  0  0  0  0
   -5.3799   -0.9061    0.6461 C   0  0  0  0  0  0  0  0  0  0  0  0
   -0.9932    0.4283    2.0004 C   0  0  0  0  0  0  0  0  0  0  0  0
   -0.1933    1.6567    1.6037 C   0  0  0  0  0  0  0  0  0  0  0  0
   -0.8045    2.9222    1.4559 C   0  0  0  0  0  0  0  0  0  0  0  0
   -2.1528    2.9901    1.7228 O   0  0  0  0  0  0  0  0  0  0  0  0
   -2.9188    3.5564    0.6581 C   0  0  0  0  0  0  0  0  0  0  0  0
   -0.0398    4.0614    1.1313 C   0  0  0  0  0  0  0  0  0  0  0  0
   -0.6980    5.2696    1.0823 O   0  0  0  0  0  0  0  0  0  0  0  0
    0.1015    6.4437    1.1738 C   0  0  0  0  0  0  0  0  0  0  0  0
    1.3275    3.9093    0.8758 C   0  0  0  0  0  0  0  0  0  0  0  0
    1.9374    2.6553    1.0013 C   0  0  0  0  0  0  0  0  0  0  0  0
    1.1871    1.5431    1.3776 C   0  0  0  0  0  0  0  0  0  0  0  0
    2.0476   -2.5087    2.0139 H   0  0  0  0  0  0  0  0  0  0  0  0
    3.5458   -4.0389    0.7608 H   0  0  0  0  0  0  0  0  0  0  0  0
    0.4171   -6.4229   -0.4513 H   0  0  0  0  0  0  0  0  0  0  0  0
   -1.2476   -5.0092    0.7445 H   0  0  0  0  0  0  0  0  0  0  0  0
   -1.2866   -3.4566    2.9229 H   0  0  0  0  0  0  0  0  0  0  0  0
   -0.1528   -2.1262    2.9638 H   0  0  0  0  0  0  0  0  0  0  0  0
    0.0522   -0.8949    0.6430 H   0  0  0  0  0  0  0  0  0  0  0  0
   -1.3412    0.6807   -0.7378 H   0  0  0  0  0  0  0  0  0  0  0  0
   -1.4909   -2.1265   -0.9662 H   0  0  0  0  0  0  0  0  0  0  0  0
   -3.3828    1.0584   -2.0394 H   0  0  0  0  0  0  0  0  0  0  0  0
   -5.8475    1.1374   -2.0256 H   0  0  0  0  0  0  0  0  0  0  0  0
   -7.1393   -0.1288   -0.3239 H   0  0  0  0  0  0  0  0  0  0  0  0
   -5.9487   -1.4710    1.3836 H   0  0  0  0  0  0  0  0  0  0  0  0
   -2.0199    0.7123    2.2495 H   0  0  0  0  0  0  0  0  0  0  0  0
   -0.5644    0.0573    2.9403 H   0  0  0  0  0  0  0  0  0  0  0  0
   -3.8956    3.0732    0.6675 H   0  0  0  0  0  0  0  0  0  0  0  0
   -3.0803    4.6236    0.8321 H   0  0  0  0  0  0  0  0  0  0  0  0
   -2.4653    3.3895   -0.3248 H   0  0  0  0  0  0  0  0  0  0  0  0
    0.8236    6.3807    1.9935 H   0  0  0  0  0  0  0  0  0  0  0  0
    0.6032    6.6427    0.2243 H   0  0  0  0  0  0  0  0  0  0  0  0
   -0.5625    7.2836    1.3863 H   0  0  0  0  0  0  0  0  0  0  0  0
    1.9457    4.7513    0.5803 H   0  0  0  0  0  0  0  0  0  0  0  0
    3.0045    2.5494    0.8107 H   0  0  0  0  0  0  0  0  0  0  0  0
    1.6917    0.5873    1.4857 H   0  0  0  0  0  0  0  0  0  0  0  0
  1  2  2  0
  2  3  1  0
  3  4  2  0
  4  5  1  0
  5  6  2  0
  6  7  1  0
  7  8  1  0
  8  9  1  0
  9 10  2  0
  9 11  2  0
  8 12  1  0
 12 13  1  0
 13 14  1  0
 13 15  1  0
 15 16  2  0
 15 17  1  0
 17 18  2  0
 18 19  1  0
 19 20  2  0
 12 21  1  0
 21 22  1  0
 22 23  2  0
 23 24  1  0
 24 25  1  0
 23 26  1  0
 26 27  1  0
 27 28  1  0
 26 29  2  0
 29 30  1  0
 30 31  2  0
  6  1  1  0
 16  9  1  0
 20 16  1  0
 31 22  1  0
  1 32  1  0
  2 33  1  0
  4 34  1  0
  5 35  1  0
  7 36  1  0
  7 37  1  0
 12 38  1  0
 13 39  1  0
 14 40  1  0
 17 41  1  0
 18 42  1  0
 19 43  1  0
 20 44  1  0
 21 45  1  0
 21 46  1  0
 25 47  1  0
 25 48  1  0
 25 49  1  0
 28 50  1  0
 28 51  1  0
 28 52  1  0
 29 53  1  0
 30 54  1  0
 31 55  1  0
M  END
>  <mol_id>  (28) 
OSSM_038313

>  <drugclip_rank>  (28) 
28

>  <conformer>  (28) 
20

>  <align_rmsd>  (28) 
1.03

$$$$
STK775802
     RDKit          3D

 66 70  0  0  0  0  0  0  0  0999 V2000
   -4.5986   -2.4112   -0.2992 C   0  0  0  0  0  0  0  0  0  0  0  0
   -5.5340   -1.4466   -0.6832 C   0  0  0  0  0  0  0  0  0  0  0  0
   -5.1179   -0.2825   -1.3269 C   0  0  0  0  0  0  0  0  0  0  0  0
   -3.7645   -0.0823   -1.5854 C   0  0  0  0  0  0  0  0  0  0  0  0
   -2.8362   -1.0460   -1.1991 C   0  0  0  0  0  0  0  0  0  0  0  0
   -1.5421   -0.8143   -1.4593 F   0  0  0  0  0  0  0  0  0  0  0  0
   -3.2295   -2.2253   -0.5526 C   0  0  0  0  0  0  0  0  0  0  0  0
   -2.2208   -3.2890   -0.1145 C   0  0  0  0  0  0  0  0  0  0  0  0
   -1.4178   -3.8082   -1.2923 C   0  0  0  0  0  0  0  0  0  0  0  0
   -2.2370   -4.5729   -2.2645 C   0  0  0  0  0  0  0  0  0  0  0  0
   -3.1551   -5.3106   -1.9355 O   0  0  0  0  0  0  0  0  0  0  0  0
   -1.8807   -4.2842   -3.5452 O   0  0  0  0  0  0  0  0  0  0  0  0
   -2.6886   -4.9353   -4.5270 C   0  0  0  0  0  0  0  0  0  0  0  0
   -0.0773   -3.6192   -1.4095 C   0  0  0  0  0  0  0  0  0  0  0  0
    0.6128   -4.1033   -2.5207 N   0  0  0  0  0  0  0  0  0  0  0  0
    0.6129   -2.9206   -0.3754 N   0  0  0  0  0  0  0  0  0  0  0  0
    1.9731   -2.5365   -0.5931 C   0  0  0  0  0  0  0  0  0  0  0  0
    3.0118   -3.4707   -0.4703 C   0  0  0  0  0  0  0  0  0  0  0  0
    4.3350   -3.0860   -0.6913 C   0  0  0  0  0  0  0  0  0  0  0  0
    4.6299   -1.7671   -1.0374 C   0  0  0  0  0  0  0  0  0  0  0  0
    3.6043   -0.8306   -1.1664 C   0  0  0  0  0  0  0  0  0  0  0  0
    2.2805   -1.2130   -0.9477 C   0  0  0  0  0  0  0  0  0  0  0  0
   -0.0178   -2.5954    0.8511 C   0  0  0  0  0  0  0  0  0  0  0  0
   -1.3446   -2.7852    1.0124 C   0  0  0  0  0  0  0  0  0  0  0  0
    0.8192   -2.0782    2.0120 C   0  0  0  0  0  0  0  0  0  0  0  0
    0.0239   -1.1880    2.9860 C   0  0  0  0  0  0  0  0  0  0  0  0
   -1.2080   -1.9630    3.4699 C   0  0  0  0  0  0  0  0  0  0  0  0
   -1.9974   -2.5913    2.3447 C   0  0  0  0  0  0  0  0  0  0  0  0
   -3.1248   -3.0497    2.5310 O   0  0  0  0  0  0  0  0  0  0  0  0
   -2.0356   -1.1381    4.4265 C   0  0  0  0  0  0  0  0  0  0  0  0
   -3.1062   -0.6032    4.1781 O   0  0  0  0  0  0  0  0  0  0  0  0
   -1.3870   -1.0454    5.6275 O   0  0  0  0  0  0  0  0  0  0  0  0
   -2.0767   -0.2537    6.5963 C   0  0  0  0  0  0  0  0  0  0  0  0
   -0.1659    0.2113    2.3997 C   0  0  0  0  0  0  0  0  0  0  0  0
   -1.3519    0.6578    1.8020 C   0  0  0  0  0  0  0  0  0  0  0  0
   -1.4443    1.9455    1.2649 C   0  0  0  0  0  0  0  0  0  0  0  0
   -0.3538    2.8084    1.3125 C   0  0  0  0  0  0  0  0  0  0  0  0
    0.8331    2.3857    1.9003 C   0  0  0  0  0  0  0  0  0  0  0  0
    0.9255    1.1005    2.4382 C   0  0  0  0  0  0  0  0  0  0  0  0
   -4.9449   -3.3080    0.2136 H   0  0  0  0  0  0  0  0  0  0  0  0
   -6.5891   -1.6047   -0.4714 H   0  0  0  0  0  0  0  0  0  0  0  0
   -5.8476    0.4670   -1.6213 H   0  0  0  0  0  0  0  0  0  0  0  0
   -3.4230    0.8198   -2.0826 H   0  0  0  0  0  0  0  0  0  0  0  0
   -2.7699   -4.1538    0.2865 H   0  0  0  0  0  0  0  0  0  0  0  0
   -2.5778   -6.0215   -4.4532 H   0  0  0  0  0  0  0  0  0  0  0  0
   -3.7375   -4.6424   -4.4187 H   0  0  0  0  0  0  0  0  0  0  0  0
   -2.3418   -4.6182   -5.5143 H   0  0  0  0  0  0  0  0  0  0  0  0
    0.0113   -4.1795   -3.3415 H   0  0  0  0  0  0  0  0  0  0  0  0
    1.4228   -3.5246   -2.7292 H   0  0  0  0  0  0  0  0  0  0  0  0
    2.7822   -4.5008   -0.2089 H   0  0  0  0  0  0  0  0  0  0  0  0
    5.1346   -3.8161   -0.5960 H   0  0  0  0  0  0  0  0  0  0  0  0
    5.6612   -1.4692   -1.2095 H   0  0  0  0  0  0  0  0  0  0  0  0
    3.8335    0.1966   -1.4373 H   0  0  0  0  0  0  0  0  0  0  0  0
    1.4807   -0.4817   -1.0485 H   0  0  0  0  0  0  0  0  0  0  0  0
    1.6952   -1.5162    1.6779 H   0  0  0  0  0  0  0  0  0  0  0  0
    1.2106   -2.9512    2.5524 H   0  0  0  0  0  0  0  0  0  0  0  0
    0.6578   -1.0429    3.8745 H   0  0  0  0  0  0  0  0  0  0  0  0
   -0.8577   -2.8349    4.0452 H   0  0  0  0  0  0  0  0  0  0  0  0
   -3.0559   -0.6883    6.8206 H   0  0  0  0  0  0  0  0  0  0  0  0
   -1.4822   -0.2487    7.5140 H   0  0  0  0  0  0  0  0  0  0  0  0
   -2.1795    0.7776    6.2444 H   0  0  0  0  0  0  0  0  0  0  0  0
   -2.2387    0.0330    1.7372 H   0  0  0  0  0  0  0  0  0  0  0  0
   -2.3766    2.2715    0.8099 H   0  0  0  0  0  0  0  0  0  0  0  0
   -0.4315    3.8080    0.8940 H   0  0  0  0  0  0  0  0  0  0  0  0
    1.6885    3.0548    1.9412 H   0  0  0  0  0  0  0  0  0  0  0  0
    1.8683    0.7940    2.8884 H   0  0  0  0  0  0  0  0  0  0  0  0
  1  2  2  0
  2  3  1  0
  3  4  2  0
  4  5  1  0
  5  6  1  0
  5  7  2  0
  7  8  1  0
  8  9  1  0
  9 10  1  0
 10 11  2  0
 10 12  1  0
 12 13  1  0
  9 14  2  0
 14 15  1  0
 14 16  1  0
 16 17  1  0
 17 18  2  0
 18 19  1  0
 19 20  2  0
 20 21  1  0
 21 22  2  0
 16 23  1  0
 23 24  2  0
 23 25  1  0
 25 26  1  0
 26 27  1  0
 27 28  1  0
 28 29  2  0
 27 30  1  0
 30 31  2  0
 30 32  1  0
 32 33  1  0
 26 34  1  0
 34 35  2  0
 35 36  1  0
 36 37  2  0
 37 38  1  0
 38 39  2  0
  7  1  1  0
 24  8  1  0
 22 17  1  0
 28 24  1  0
 39 34  1  0
  1 40  1  0
  2 41  1  0
  3 42  1  0
  4 43  1  0
  8 44  1  0
 13 45  1  0
 13 46  1  0
 13 47  1  0
 15 48  1  0
 15 49  1  0
 18 50  1  0
 19 51  1  0
 20 52  1  0
 21 53  1  0
 22 54  1  0
 25 55  1  0
 25 56  1  0
 26 57  1  0
 27 58  1  0
 33 59  1  0
 33 60  1  0
 33 61  1  0
 35 62  1  0
 36 63  1  0
 37 64  1  0
 38 65  1  0
 39 66  1  0
M  END
>  <mol_id>  (29) 
STK775802

>  <drugclip_rank>  (29) 
29

>  <conformer>  (29) 
28

>  <align_rmsd>  (29) 
1.205

$$$$
STK537793
     RDKit          3D

 61 64  0  0  0  0  0  0  0  0999 V2000
    0.0136    0.9921   -0.1660 C   0  0  0  0  0  0  0  0  0  0  0  0
    0.6453    2.1517    0.2887 C   0  0  0  0  0  0  0  0  0  0  0  0
    0.3226    2.6739    1.5356 C   0  0  0  0  0  0  0  0  0  0  0  0
   -0.6271    2.0355    2.3314 C   0  0  0  0  0  0  0  0  0  0  0  0
   -1.2782    0.8824    1.8744 C   0  0  0  0  0  0  0  0  0  0  0  0
   -2.1700    0.1920    2.6531 O   0  0  0  0  0  0  0  0  0  0  0  0
   -3.0073    1.0014    3.4779 C   0  0  0  0  0  0  0  0  0  0  0  0
   -0.9657    0.3351    0.6105 C   0  0  0  0  0  0  0  0  0  0  0  0
   -1.6424   -0.9549    0.0884 C   0  0  0  0  0  0  0  0  0  0  0  0
   -1.3491   -1.0645   -1.3419 O   0  0  0  0  0  0  0  0  0  0  0  0
   -3.1833   -0.8864    0.1125 C   0  0  0  0  0  0  0  0  0  0  0  0
   -4.0216   -1.7641    0.8306 C   0  0  0  0  0  0  0  0  0  0  0  0
   -3.4173   -2.7288    1.5775 O   0  0  0  0  0  0  0  0  0  0  0  0
   -4.2075   -3.7895    2.0943 C   0  0  0  0  0  0  0  0  0  0  0  0
   -5.4141   -1.5980    0.7845 C   0  0  0  0  0  0  0  0  0  0  0  0
   -5.9911   -0.5764    0.0288 C   0  0  0  0  0  0  0  0  0  0  0  0
   -5.1838    0.2953   -0.6869 C   0  0  0  0  0  0  0  0  0  0  0  0
   -3.7994    0.1406   -0.6426 C   0  0  0  0  0  0  0  0  0  0  0  0
   -0.9644   -2.2325    0.6946 C   0  0  0  0  0  0  0  0  0  0  0  0
   -0.6639   -3.1852   -0.0377 O   0  0  0  0  0  0  0  0  0  0  0  0
   -0.7173   -2.1852    2.0683 N   0  0  0  0  0  0  0  0  0  0  0  0
   -0.2271   -3.2783    2.7357 N   0  0  0  0  0  0  0  0  0  0  0  0
    1.0041   -3.6487    2.4998 C   0  0  0  0  0  0  0  0  0  0  0  0
    1.4797   -4.9198    3.1380 C   0  0  0  0  0  0  0  0  0  0  0  0
    0.5462   -5.9286    3.4201 C   0  0  0  0  0  0  0  0  0  0  0  0
    0.9573   -7.1195    4.0225 C   0  0  0  0  0  0  0  0  0  0  0  0
    2.3007   -7.3078    4.3499 C   0  0  0  0  0  0  0  0  0  0  0  0
    3.2308   -6.3052    4.0832 C   0  0  0  0  0  0  0  0  0  0  0  0
    2.8226   -5.1113    3.4824 C   0  0  0  0  0  0  0  0  0  0  0  0
    1.9779   -2.8732    1.6756 C   0  0  0  0  0  0  0  0  0  0  0  0
    2.2728   -1.5501    2.0181 C   0  0  0  0  0  0  0  0  0  0  0  0
    3.1710   -0.8197    1.2436 C   0  0  0  0  0  0  0  0  0  0  0  0
    3.7727   -1.4084    0.1328 C   0  0  0  0  0  0  0  0  0  0  0  0
    3.4831   -2.7312   -0.2047 C   0  0  0  0  0  0  0  0  0  0  0  0
    2.5842   -3.4667    0.5647 C   0  0  0  0  0  0  0  0  0  0  0  0
    0.2979    0.6004   -1.1429 H   0  0  0  0  0  0  0  0  0  0  0  0
    1.3950    2.6392   -0.3313 H   0  0  0  0  0  0  0  0  0  0  0  0
    0.8189    3.5713    1.8956 H   0  0  0  0  0  0  0  0  0  0  0  0
   -0.8268    2.4430    3.3170 H   0  0  0  0  0  0  0  0  0  0  0  0
   -3.8648    0.3946    3.7677 H   0  0  0  0  0  0  0  0  0  0  0  0
   -2.4789    1.2910    4.3919 H   0  0  0  0  0  0  0  0  0  0  0  0
   -3.3845    1.8847    2.9488 H   0  0  0  0  0  0  0  0  0  0  0  0
   -1.2167   -2.0222   -1.4931 H   0  0  0  0  0  0  0  0  0  0  0  0
   -4.8704   -3.4288    2.8869 H   0  0  0  0  0  0  0  0  0  0  0  0
   -3.5285   -4.5242    2.5366 H   0  0  0  0  0  0  0  0  0  0  0  0
   -4.7725   -4.2930    1.3014 H   0  0  0  0  0  0  0  0  0  0  0  0
   -6.0827   -2.2496    1.3385 H   0  0  0  0  0  0  0  0  0  0  0  0
   -7.0712   -0.4628    0.0018 H   0  0  0  0  0  0  0  0  0  0  0  0
   -5.6242    1.0925   -1.2808 H   0  0  0  0  0  0  0  0  0  0  0  0
   -3.1807    0.8310   -1.2159 H   0  0  0  0  0  0  0  0  0  0  0  0
   -1.4506   -1.6922    2.5796 H   0  0  0  0  0  0  0  0  0  0  0  0
   -0.5032   -5.7922    3.1626 H   0  0  0  0  0  0  0  0  0  0  0  0
    0.2284   -7.8979    4.2356 H   0  0  0  0  0  0  0  0  0  0  0  0
    2.6189   -8.2360    4.8172 H   0  0  0  0  0  0  0  0  0  0  0  0
    4.2739   -6.4491    4.3480 H   0  0  0  0  0  0  0  0  0  0  0  0
    3.5622   -4.3368    3.3063 H   0  0  0  0  0  0  0  0  0  0  0  0
    1.7944   -1.0864    2.8756 H   0  0  0  0  0  0  0  0  0  0  0  0
    3.3867    0.2127    1.4988 H   0  0  0  0  0  0  0  0  0  0  0  0
    4.4639   -0.8356   -0.4767 H   0  0  0  0  0  0  0  0  0  0  0  0
    3.9498   -3.1855   -1.0757 H   0  0  0  0  0  0  0  0  0  0  0  0
    2.3387   -4.4872    0.2823 H   0  0  0  0  0  0  0  0  0  0  0  0
  1  2  2  0
  2  3  1  0
  3  4  2  0
  4  5  1  0
  5  6  1  0
  6  7  1  0
  5  8  2  0
  8  9  1  0
  9 10  1  0
  9 11  1  0
 11 12  2  0
 12 13  1  0
 13 14  1  0
 12 15  1  0
 15 16  2  0
 16 17  1  0
 17 18  2  0
  9 19  1  0
 19 20  2  0
 19 21  1  0
 21 22  1  0
 22 23  2  3
 23 24  1  0
 24 25  2  0
 25 26  1  0
 26 27  2  0
 27 28  1  0
 28 29  2  0
 23 30  1  0
 30 31  2  0
 31 32  1  0
 32 33  2  0
 33 34  1  0
 34 35  2  0
  8  1  1  0
 18 11  1  0
 29 24  1  0
 35 30  1  0
  1 36  1  0
  2 37  1  0
  3 38  1  0
  4 39  1  0
  7 40  1  0
  7 41  1  0
  7 42  1  0
 10 43  1  0
 14 44  1  0
 14 45  1  0
 14 46  1  0
 15 47  1  0
 16 48  1  0
 17 49  1  0
 18 50  1  0
 21 51  1  0
 25 52  1  0
 26 53  1  0
 27 54  1  0
 28 55  1  0
 29 56  1  0
 31 57  1  0
 32 58  1  0
 33 59  1  0
 34 60  1  0
 35 61  1  0
M  END
>  <mol_id>  (30) 
STK537793

>  <drugclip_rank>  (30) 
30

>  <conformer>  (30) 
7

>  <align_rmsd>  (30) 
1.397

$$$$
OSSL_614035
     RDKit          3D

 54 57  0  0  0  0  0  0  0  0999 V2000
   -3.3129    0.3472   -0.9938 C   0  0  0  0  0  0  0  0  0  0  0  0
   -4.4175    0.1008   -1.8142 C   0  0  0  0  0  0  0  0  0  0  0  0
   -5.4497   -0.7609   -1.3982 C   0  0  0  0  0  0  0  0  0  0  0  0
   -5.3952   -1.3958   -0.1553 C   0  0  0  0  0  0  0  0  0  0  0  0
   -4.2963   -1.1421    0.6361 C   0  0  0  0  0  0  0  0  0  0  0  0
   -4.0351   -1.6570    1.8965 N   0  0  0  0  0  0  0  0  0  0  0  0
   -2.8456   -1.1545    2.4221 C   0  0  0  0  0  0  0  0  0  0  0  0
   -2.3913   -1.4335    3.5211 O   0  0  0  0  0  0  0  0  0  0  0  0
   -3.2671   -0.2840    0.2393 C   0  0  0  0  0  0  0  0  0  0  0  0
   -2.2197   -0.2134    1.3393 C   0  0  0  0  0  0  0  0  0  0  0  0
   -0.9001   -0.8066    0.9263 C   0  0  0  0  0  0  0  0  0  0  0  0
   -0.8928   -2.1107    0.2477 C   0  0  0  0  0  0  0  0  0  0  0  0
   -0.8616   -2.2437   -0.9650 O   0  0  0  0  0  0  0  0  0  0  0  0
   -0.9288   -3.0946    1.1753 O   0  0  0  0  0  0  0  0  0  0  0  0
   -0.9043   -4.4153    0.6256 C   0  0  0  0  0  0  0  0  0  0  0  0
   -0.9383   -5.4043    1.7747 C   0  0  0  0  0  0  0  0  0  0  0  0
    0.2609   -0.1672    1.1430 C   0  0  0  0  0  0  0  0  0  0  0  0
    1.5798   -0.7059    0.7918 C   0  0  0  0  0  0  0  0  0  0  0  0
    2.1955   -0.3410   -0.4104 C   0  0  0  0  0  0  0  0  0  0  0  0
    3.4449   -0.8661   -0.7467 C   0  0  0  0  0  0  0  0  0  0  0  0
    4.0839   -1.7561    0.1157 C   0  0  0  0  0  0  0  0  0  0  0  0
    3.4761   -2.1228    1.3154 C   0  0  0  0  0  0  0  0  0  0  0  0
    2.2272   -1.5993    1.6543 C   0  0  0  0  0  0  0  0  0  0  0  0
    0.3189    1.0812    1.7376 O   0  0  0  0  0  0  0  0  0  0  0  0
   -0.8489    1.7447    2.0966 C   0  0  0  0  0  0  0  0  0  0  0  0
   -0.6065    2.9915    2.6263 N   0  0  0  0  0  0  0  0  0  0  0  0
   -2.0598    1.1777    1.9150 C   0  0  0  0  0  0  0  0  0  0  0  0
   -3.3027    1.8775    2.3116 C   0  0  0  0  0  0  0  0  0  0  0  0
   -4.2439    1.3363    2.8696 O   0  0  0  0  0  0  0  0  0  0  0  0
   -3.2759    3.1673    1.8774 O   0  0  0  0  0  0  0  0  0  0  0  0
   -4.4722    3.9230    2.1192 C   0  0  0  0  0  0  0  0  0  0  0  0
   -5.4602    3.7097    0.9882 C   0  0  0  0  0  0  0  0  0  0  0  0
   -2.5166    1.0069   -1.3254 H   0  0  0  0  0  0  0  0  0  0  0  0
   -4.4799    0.5765   -2.7912 H   0  0  0  0  0  0  0  0  0  0  0  0
   -6.2978   -0.9360   -2.0564 H   0  0  0  0  0  0  0  0  0  0  0  0
   -6.1896   -2.0596    0.1653 H   0  0  0  0  0  0  0  0  0  0  0  0
   -4.6423   -2.2671    2.4230 H   0  0  0  0  0  0  0  0  0  0  0  0
   -1.7787   -4.5634   -0.0186 H   0  0  0  0  0  0  0  0  0  0  0  0
    0.0130   -4.5565    0.0417 H   0  0  0  0  0  0  0  0  0  0  0  0
   -0.0766   -5.2570    2.4351 H   0  0  0  0  0  0  0  0  0  0  0  0
   -0.9270   -6.4335    1.4049 H   0  0  0  0  0  0  0  0  0  0  0  0
   -1.8357   -5.2584    2.3843 H   0  0  0  0  0  0  0  0  0  0  0  0
    1.7030    0.3461   -1.0942 H   0  0  0  0  0  0  0  0  0  0  0  0
    3.9176   -0.5836   -1.6836 H   0  0  0  0  0  0  0  0  0  0  0  0
    5.0561   -2.1652   -0.1484 H   0  0  0  0  0  0  0  0  0  0  0  0
    3.9743   -2.8158    1.9880 H   0  0  0  0  0  0  0  0  0  0  0  0
    1.7614   -1.8921    2.5930 H   0  0  0  0  0  0  0  0  0  0  0  0
   -1.3611    3.6541    2.4516 H   0  0  0  0  0  0  0  0  0  0  0  0
    0.3015    3.3470    2.3359 H   0  0  0  0  0  0  0  0  0  0  0  0
   -4.9135    3.6733    3.0909 H   0  0  0  0  0  0  0  0  0  0  0  0
   -4.1808    4.9770    2.1606 H   0  0  0  0  0  0  0  0  0  0  0  0
   -5.7676    2.6613    0.9273 H   0  0  0  0  0  0  0  0  0  0  0  0
   -6.3519    4.3267    1.1332 H   0  0  0  0  0  0  0  0  0  0  0  0
   -5.0045    3.9638    0.0253 H   0  0  0  0  0  0  0  0  0  0  0  0
  1  2  2  0
  2  3  1  0
  3  4  2  0
  4  5  1  0
  5  6  1  0
  6  7  1  0
  7  8  2  0
  5  9  2  0
  9 10  1  0
 10 11  1  0
 11 12  1  0
 12 13  2  0
 12 14  1  0
 14 15  1  0
 15 16  1  0
 11 17  2  0
 17 18  1  0
 18 19  2  0
 19 20  1  0
 20 21  2  0
 21 22  1  0
 22 23  2  0
 17 24  1  0
 24 25  1  0
 25 26  1  0
 25 27  2  0
 27 28  1  0
 28 29  2  0
 28 30  1  0
 30 31  1  0
 31 32  1  0
  9  1  1  0
 10  7  1  0
 27 10  1  0
 23 18  1  0
  1 33  1  0
  2 34  1  0
  3 35  1  0
  4 36  1  0
  6 37  1  0
 15 38  1  0
 15 39  1  0
 16 40  1  0
 16 41  1  0
 16 42  1  0
 19 43  1  0
 20 44  1  0
 21 45  1  0
 22 46  1  0
 23 47  1  0
 26 48  1  0
 26 49  1  0
 31 50  1  0
 31 51  1  0
 32 52  1  0
 32 53  1  0
 32 54  1  0
M  END
>  <mol_id>  (31) 
OSSL_614035

>  <drugclip_rank>  (31) 
31

>  <conformer>  (31) 
21

>  <align_rmsd>  (31) 
0.722

$$$$
STL007042
     RDKit          3D

 60 65  0  0  0  0  0  0  0  0999 V2000
   -3.9447   -1.3675   -1.9486 C   0  0  0  0  0  0  0  0  0  0  0  0
   -5.1946   -1.1814   -2.5548 C   0  0  0  0  0  0  0  0  0  0  0  0
   -6.3481   -1.1490   -1.7816 C   0  0  0  0  0  0  0  0  0  0  0  0
   -6.2499   -1.3036   -0.4056 C   0  0  0  0  0  0  0  0  0  0  0  0
   -4.9988   -1.4904    0.1968 C   0  0  0  0  0  0  0  0  0  0  0  0
   -3.8140   -1.5300   -0.5589 C   0  0  0  0  0  0  0  0  0  0  0  0
   -2.5365   -1.7088    0.0630 N   0  0  0  0  0  0  0  0  0  0  0  0
   -2.3473   -2.0833    1.3791 C   0  0  0  0  0  0  0  0  0  0  0  0
   -3.1613   -2.4962    2.1933 O   0  0  0  0  0  0  0  0  0  0  0  0
   -1.3199   -1.5407   -0.5645 C   0  0  0  0  0  0  0  0  0  0  0  0
   -1.0768   -1.1671   -1.7062 O   0  0  0  0  0  0  0  0  0  0  0  0
   -0.2177   -1.9414    0.3694 C   0  0  0  0  0  0  0  0  0  0  0  0
   -0.8864   -1.9420    1.7054 C   0  0  0  0  0  0  0  0  0  0  0  0
    0.8283   -0.8576    0.4820 C   0  0  0  0  0  0  0  0  0  0  0  0
    0.2907    0.0048    1.5391 N   0  0  0  0  0  0  0  0  0  0  0  0
   -0.6609   -0.6832    2.3251 O   0  0  0  0  0  0  0  0  0  0  0  0
    0.0773    1.3715    1.2640 C   0  0  0  0  0  0  0  0  0  0  0  0
   -1.0105    2.0520    1.8379 C   0  0  0  0  0  0  0  0  0  0  0  0
   -1.2474    3.4053    1.5791 C   0  0  0  0  0  0  0  0  0  0  0  0
   -0.3858    4.1145    0.7500 C   0  0  0  0  0  0  0  0  0  0  0  0
    0.7171    3.4727    0.1949 C   0  0  0  0  0  0  0  0  0  0  0  0
    0.9503    2.1191    0.4586 C   0  0  0  0  0  0  0  0  0  0  0  0
    2.1925   -1.4674    0.7951 C   0  0  0  0  0  0  0  0  0  0  0  0
    2.7710   -1.5941    2.0687 C   0  0  0  0  0  0  0  0  0  0  0  0
    3.9735   -2.2927    2.2461 C   0  0  0  0  0  0  0  0  0  0  0  0
    4.6498   -2.8233    1.1508 C   0  0  0  0  0  0  0  0  0  0  0  0
    4.1214   -2.6686   -0.1252 C   0  0  0  0  0  0  0  0  0  0  0  0
    2.9066   -2.0041   -0.2998 C   0  0  0  0  0  0  0  0  0  0  0  0
    2.1550   -1.1053    3.1921 O   0  0  0  0  0  0  0  0  0  0  0  0
    2.6551    0.3375    3.8033 S   0  0  0  0  0  0  0  0  0  0  0  0
    1.5884    0.9069    4.6047 O   0  0  0  0  0  0  0  0  0  0  0  0
    3.3208    1.1154    2.7726 O   0  0  0  0  0  0  0  0  0  0  0  0
    3.9115   -0.1387    4.9813 C   0  0  0  0  0  0  0  0  0  0  0  0
    5.2370    0.2719    4.8060 C   0  0  0  0  0  0  0  0  0  0  0  0
    6.2010   -0.1237    5.7332 C   0  0  0  0  0  0  0  0  0  0  0  0
    5.8382   -0.9165    6.8267 C   0  0  0  0  0  0  0  0  0  0  0  0
    4.5113   -1.3156    7.0002 C   0  0  0  0  0  0  0  0  0  0  0  0
    3.5411   -0.9270    6.0773 C   0  0  0  0  0  0  0  0  0  0  0  0
   -3.0861   -1.3895   -2.6140 H   0  0  0  0  0  0  0  0  0  0  0  0
   -5.2593   -1.0553   -3.6327 H   0  0  0  0  0  0  0  0  0  0  0  0
   -7.3176   -0.9993   -2.2486 H   0  0  0  0  0  0  0  0  0  0  0  0
   -7.1455   -1.2687    0.2111 H   0  0  0  0  0  0  0  0  0  0  0  0
   -4.9944   -1.5783    1.2787 H   0  0  0  0  0  0  0  0  0  0  0  0
    0.1405   -2.9292    0.0604 H   0  0  0  0  0  0  0  0  0  0  0  0
   -0.5422   -2.7484    2.3557 H   0  0  0  0  0  0  0  0  0  0  0  0
    0.9237   -0.3161   -0.4672 H   0  0  0  0  0  0  0  0  0  0  0  0
   -1.6922    1.5266    2.5033 H   0  0  0  0  0  0  0  0  0  0  0  0
   -2.0996    3.9032    2.0351 H   0  0  0  0  0  0  0  0  0  0  0  0
   -0.5633    5.1666    0.5525 H   0  0  0  0  0  0  0  0  0  0  0  0
    1.4093    4.0273   -0.4329 H   0  0  0  0  0  0  0  0  0  0  0  0
    1.8498    1.6681    0.0474 H   0  0  0  0  0  0  0  0  0  0  0  0
    4.3909   -2.4340    3.2397 H   0  0  0  0  0  0  0  0  0  0  0  0
    5.5860   -3.3573    1.2949 H   0  0  0  0  0  0  0  0  0  0  0  0
    4.6460   -3.0767   -0.9858 H   0  0  0  0  0  0  0  0  0  0  0  0
    2.5100   -1.9141   -1.3116 H   0  0  0  0  0  0  0  0  0  0  0  0
    5.5236    0.8953    3.9604 H   0  0  0  0  0  0  0  0  0  0  0  0
    7.2355    0.1912    5.6116 H   0  0  0  0  0  0  0  0  0  0  0  0
    6.5916   -1.2175    7.5513 H   0  0  0  0  0  0  0  0  0  0  0  0
    4.2360   -1.9226    7.8605 H   0  0  0  0  0  0  0  0  0  0  0  0
    2.5050   -1.2272    6.2194 H   0  0  0  0  0  0  0  0  0  0  0  0
  1  2  2  0
  2  3  1  0
  3  4  2  0
  4  5  1  0
  5  6  2  0
  6  7  1  0
  7  8  1  0
  8  9  2  0
  7 10  1  0
 10 11  2  0
 10 12  1  0
 12 13  1  0
 12 14  1  0
 14 15  1  0
 15 16  1  0
 15 17  1  0
 17 18  2  0
 18 19  1  0
 19 20  2  0
 20 21  1  0
 21 22  2  0
 14 23  1  0
 23 24  1  0
 24 25  2  0
 25 26  1  0
 26 27  2  0
 27 28  1  0
 24 29  1  0
 29 30  1  0
 30 31  2  0
 30 32  2  0
 30 33  1  0
 33 34  2  0
 34 35  1  0
 35 36  2  0
 36 37  1  0
 37 38  2  0
  6  1  1  0
 13  8  1  0
 16 13  1  0
 22 17  1  0
 28 23  2  0
 38 33  1  0
  1 39  1  0
  2 40  1  0
  3 41  1  0
  4 42  1  0
  5 43  1  0
 12 44  1  0
 13 45  1  0
 14 46  1  0
 18 47  1  0
 19 48  1  0
 20 49  1  0
 21 50  1  0
 22 51  1  0
 25 52  1  0
 26 53  1  0
 27 54  1  0
 28 55  1  0
 34 56  1  0
 35 57  1  0
 36 58  1  0
 37 59  1  0
 38 60  1  0
M  END
>  <mol_id>  (32) 
STL007042

>  <drugclip_rank>  (32) 
32

>  <conformer>  (32) 
29

>  <align_rmsd>  (32) 
1.033

$$$$
OSSM_147405
     RDKit          3D

 51 54  0  0  0  0  0  0  0  0999 V2000
   -3.3905    0.2788   -1.0042 C   0  0  0  0  0  0  0  0  0  0  0  0
   -4.5128    0.0298   -1.7991 C   0  0  0  0  0  0  0  0  0  0  0  0
   -5.5494   -0.8069   -1.3451 C   0  0  0  0  0  0  0  0  0  0  0  0
   -5.4822   -1.4125   -0.0882 C   0  0  0  0  0  0  0  0  0  0  0  0
   -4.3660   -1.1560    0.6777 C   0  0  0  0  0  0  0  0  0  0  0  0
   -4.0885   -1.6458    1.9444 N   0  0  0  0  0  0  0  0  0  0  0  0
   -2.8736   -1.1633    2.4280 C   0  0  0  0  0  0  0  0  0  0  0  0
   -2.3921   -1.4357    3.5176 O   0  0  0  0  0  0  0  0  0  0  0  0
   -3.3313   -0.3247    0.2416 C   0  0  0  0  0  0  0  0  0  0  0  0
   -2.2620   -0.2448    1.3179 C   0  0  0  0  0  0  0  0  0  0  0  0
   -0.9472   -0.8399    0.8943 C   0  0  0  0  0  0  0  0  0  0  0  0
   -0.9543   -2.1161    0.1634 C   0  0  0  0  0  0  0  0  0  0  0  0
   -0.7922   -2.2100   -1.0422 O   0  0  0  0  0  0  0  0  0  0  0  0
   -1.1753   -3.1269    1.0351 O   0  0  0  0  0  0  0  0  0  0  0  0
   -1.1999   -4.4238    0.4304 C   0  0  0  0  0  0  0  0  0  0  0  0
   -1.5055   -5.4411    1.5119 C   0  0  0  0  0  0  0  0  0  0  0  0
    0.2185   -0.2148    1.1334 C   0  0  0  0  0  0  0  0  0  0  0  0
    0.2816    1.0219    1.7560 O   0  0  0  0  0  0  0  0  0  0  0  0
   -0.8846    1.7002    2.0975 C   0  0  0  0  0  0  0  0  0  0  0  0
   -0.6337    2.9285    2.6628 N   0  0  0  0  0  0  0  0  0  0  0  0
   -2.0938    1.1419    1.8917 C   0  0  0  0  0  0  0  0  0  0  0  0
   -3.3297    1.8604    2.2494 C   0  0  0  0  0  0  0  0  0  0  0  0
   -4.1604    1.4371    3.0370 O   0  0  0  0  0  0  0  0  0  0  0  0
   -3.4219    3.0064    1.5301 O   0  0  0  0  0  0  0  0  0  0  0  0
   -4.6258    3.7388    1.7564 C   0  0  0  0  0  0  0  0  0  0  0  0
    1.5384   -0.7541    0.7832 C   0  0  0  0  0  0  0  0  0  0  0  0
    2.0851   -1.8210    1.5087 C   0  0  0  0  0  0  0  0  0  0  0  0
    3.3387   -2.3326    1.1693 C   0  0  0  0  0  0  0  0  0  0  0  0
    4.0524   -1.7812    0.1057 C   0  0  0  0  0  0  0  0  0  0  0  0
    3.5171   -0.7157   -0.6171 C   0  0  0  0  0  0  0  0  0  0  0  0
    2.2639   -0.2014   -0.2790 C   0  0  0  0  0  0  0  0  0  0  0  0
   -2.5922    0.9221   -1.3627 H   0  0  0  0  0  0  0  0  0  0  0  0
   -4.5856    0.4858   -2.7846 H   0  0  0  0  0  0  0  0  0  0  0  0
   -6.4117   -0.9845   -1.9842 H   0  0  0  0  0  0  0  0  0  0  0  0
   -6.2803   -2.0568    0.2617 H   0  0  0  0  0  0  0  0  0  0  0  0
   -4.6887   -2.2454    2.4907 H   0  0  0  0  0  0  0  0  0  0  0  0
   -1.9778   -4.4602   -0.3410 H   0  0  0  0  0  0  0  0  0  0  0  0
   -0.2236   -4.6389   -0.0193 H   0  0  0  0  0  0  0  0  0  0  0  0
   -0.7581   -5.3928    2.3111 H   0  0  0  0  0  0  0  0  0  0  0  0
   -2.4777   -5.2322    1.9701 H   0  0  0  0  0  0  0  0  0  0  0  0
   -1.5196   -6.4545    1.1008 H   0  0  0  0  0  0  0  0  0  0  0  0
   -1.3546    3.2583    3.2983 H   0  0  0  0  0  0  0  0  0  0  0  0
    0.2951    2.9592    3.0786 H   0  0  0  0  0  0  0  0  0  0  0  0
   -5.5003    3.1308    1.5034 H   0  0  0  0  0  0  0  0  0  0  0  0
   -4.6160    4.6167    1.1045 H   0  0  0  0  0  0  0  0  0  0  0  0
   -4.6759    4.0787    2.7955 H   0  0  0  0  0  0  0  0  0  0  0  0
    1.5398   -2.2579    2.3429 H   0  0  0  0  0  0  0  0  0  0  0  0
    3.7595   -3.1593    1.7364 H   0  0  0  0  0  0  0  0  0  0  0  0
    5.0277   -2.1813   -0.1595 H   0  0  0  0  0  0  0  0  0  0  0  0
    4.0727   -0.2875   -1.4475 H   0  0  0  0  0  0  0  0  0  0  0  0
    1.8523    0.6251   -0.8545 H   0  0  0  0  0  0  0  0  0  0  0  0
  1  2  2  0
  2  3  1  0
  3  4  2  0
  4  5  1  0
  5  6  1  0
  6  7  1  0
  7  8  2  0
  5  9  2  0
  9 10  1  0
 10 11  1  0
 11 12  1  0
 12 13  2  0
 12 14  1  0
 14 15  1  0
 15 16  1  0
 11 17  2  0
 17 18  1  0
 18 19  1  0
 19 20  1  0
 19 21  2  0
 21 22  1  0
 22 23  2  0
 22 24  1  0
 24 25  1  0
 17 26  1  0
 26 27  2  0
 27 28  1  0
 28 29  2  0
 29 30  1  0
 30 31  2  0
  9  1  1  0
 10  7  1  0
 21 10  1  0
 31 26  1  0
  1 32  1  0
  2 33  1  0
  3 34  1  0
  4 35  1  0
  6 36  1  0
 15 37  1  0
 15 38  1  0
 16 39  1  0
 16 40  1  0
 16 41  1  0
 20 42  1  0
 20 43  1  0
 25 44  1  0
 25 45  1  0
 25 46  1  0
 27 47  1  0
 28 48  1  0
 29 49  1  0
 30 50  1  0
 31 51  1  0
M  END
>  <mol_id>  (33) 
OSSM_147405

>  <drugclip_rank>  (33) 
33

>  <conformer>  (33) 
12

>  <align_rmsd>  (33) 
0.701

$$$$
STL001057
     RDKit          3D

 63 68  0  0  0  0  0  0  0  0999 V2000
   -2.2245   -3.2818    5.2303 C   0  0  0  0  0  0  0  0  0  0  0  0
   -2.9071   -4.3010    5.8979 C   0  0  0  0  0  0  0  0  0  0  0  0
   -3.0934   -4.2236    7.2700 C   0  0  0  0  0  0  0  0  0  0  0  0
   -2.6171   -3.1162    7.9667 C   0  0  0  0  0  0  0  0  0  0  0  0
   -1.9454   -2.0665    7.3058 C   0  0  0  0  0  0  0  0  0  0  0  0
   -1.5709   -0.8773    8.1507 C   0  0  0  0  0  0  0  0  0  0  0  0
   -1.7070   -2.1651    5.9162 C   0  0  0  0  0  0  0  0  0  0  0  0
   -0.9782   -1.1870    5.1816 N   0  0  0  0  0  0  0  0  0  0  0  0
    0.2274   -0.6526    5.5879 C   0  0  0  0  0  0  0  0  0  0  0  0
    0.8415   -0.8444    6.6291 O   0  0  0  0  0  0  0  0  0  0  0  0
   -1.2685   -0.8186    3.8868 C   0  0  0  0  0  0  0  0  0  0  0  0
   -2.1597   -1.2260    3.1533 O   0  0  0  0  0  0  0  0  0  0  0  0
   -0.3646    0.3083    3.4967 C   0  0  0  0  0  0  0  0  0  0  0  0
    0.7824    0.1655    4.4473 C   0  0  0  0  0  0  0  0  0  0  0  0
    0.2348    0.1076    2.1253 C   0  0  0  0  0  0  0  0  0  0  0  0
    1.5717   -0.4314    2.4088 N   0  0  0  0  0  0  0  0  0  0  0  0
    1.7938   -0.5881    3.7895 O   0  0  0  0  0  0  0  0  0  0  0  0
    2.2310   -1.2775    1.5024 C   0  0  0  0  0  0  0  0  0  0  0  0
    3.2933   -2.0852    1.9438 C   0  0  0  0  0  0  0  0  0  0  0  0
    3.9831   -2.9356    1.0732 C   0  0  0  0  0  0  0  0  0  0  0  0
    3.6296   -2.9900   -0.2700 C   0  0  0  0  0  0  0  0  0  0  0  0
    2.5940   -2.1892   -0.7382 C   0  0  0  0  0  0  0  0  0  0  0  0
    1.9083   -1.3395    0.1383 C   0  0  0  0  0  0  0  0  0  0  0  0
    0.2782    1.4394    1.3860 C   0  0  0  0  0  0  0  0  0  0  0  0
   -0.8544    1.8960    0.6870 C   0  0  0  0  0  0  0  0  0  0  0  0
   -0.8569    3.1423    0.0551 C   0  0  0  0  0  0  0  0  0  0  0  0
    0.2863    3.9377    0.0811 C   0  0  0  0  0  0  0  0  0  0  0  0
    1.4232    3.4973    0.7525 C   0  0  0  0  0  0  0  0  0  0  0  0
    1.4178    2.2634    1.4061 C   0  0  0  0  0  0  0  0  0  0  0  0
   -1.9982    1.1346    0.6924 O   0  0  0  0  0  0  0  0  0  0  0  0
   -2.5011    0.4794   -0.7238 S   0  0  0  0  0  0  0  0  0  0  0  0
   -1.4610   -0.3987   -1.2283 O   0  0  0  0  0  0  0  0  0  0  0  0
   -3.0555    1.5310   -1.5579 O   0  0  0  0  0  0  0  0  0  0  0  0
   -3.8580   -0.5599   -0.2253 C   0  0  0  0  0  0  0  0  0  0  0  0
   -3.5896   -1.8178    0.3218 C   0  0  0  0  0  0  0  0  0  0  0  0
   -4.6497   -2.6407    0.7019 C   0  0  0  0  0  0  0  0  0  0  0  0
   -5.9661   -2.2121    0.5236 C   0  0  0  0  0  0  0  0  0  0  0  0
   -6.2290   -0.9608   -0.0368 C   0  0  0  0  0  0  0  0  0  0  0  0
   -5.1749   -0.1296   -0.4167 C   0  0  0  0  0  0  0  0  0  0  0  0
   -2.0692   -3.4046    4.1604 H   0  0  0  0  0  0  0  0  0  0  0  0
   -3.2782   -5.1594    5.3437 H   0  0  0  0  0  0  0  0  0  0  0  0
   -3.6152   -5.0178    7.7974 H   0  0  0  0  0  0  0  0  0  0  0  0
   -2.7892   -3.0613    9.0408 H   0  0  0  0  0  0  0  0  0  0  0  0
   -1.5188    0.0429    7.5618 H   0  0  0  0  0  0  0  0  0  0  0  0
   -0.6185   -1.0530    8.6582 H   0  0  0  0  0  0  0  0  0  0  0  0
   -2.3348   -0.6978    8.9165 H   0  0  0  0  0  0  0  0  0  0  0  0
   -0.9244    1.2394    3.6440 H   0  0  0  0  0  0  0  0  0  0  0  0
    1.1806    1.1235    4.7938 H   0  0  0  0  0  0  0  0  0  0  0  0
   -0.3395   -0.6183    1.5374 H   0  0  0  0  0  0  0  0  0  0  0  0
    3.5973   -2.0587    2.9879 H   0  0  0  0  0  0  0  0  0  0  0  0
    4.7963   -3.5499    1.4498 H   0  0  0  0  0  0  0  0  0  0  0  0
    4.1627   -3.6478   -0.9507 H   0  0  0  0  0  0  0  0  0  0  0  0
    2.3155   -2.2158   -1.7888 H   0  0  0  0  0  0  0  0  0  0  0  0
    1.1215   -0.7222   -0.2859 H   0  0  0  0  0  0  0  0  0  0  0  0
   -1.7433    3.5067   -0.4589 H   0  0  0  0  0  0  0  0  0  0  0  0
    0.2899    4.9017   -0.4216 H   0  0  0  0  0  0  0  0  0  0  0  0
    2.3183    4.1150    0.7699 H   0  0  0  0  0  0  0  0  0  0  0  0
    2.3222    1.9478    1.9253 H   0  0  0  0  0  0  0  0  0  0  0  0
   -2.5669   -2.1596    0.4657 H   0  0  0  0  0  0  0  0  0  0  0  0
   -4.4494   -3.6154    1.1401 H   0  0  0  0  0  0  0  0  0  0  0  0
   -6.7899   -2.8569    0.8213 H   0  0  0  0  0  0  0  0  0  0  0  0
   -7.2570   -0.6355   -0.1786 H   0  0  0  0  0  0  0  0  0  0  0  0
   -5.3904    0.8409   -0.8585 H   0  0  0  0  0  0  0  0  0  0  0  0
  1  2  2  0
  2  3  1  0
  3  4  2  0
  4  5  1  0
  5  6  1  0
  5  7  2  0
  7  8  1  0
  8  9  1  0
  9 10  2  0
  8 11  1  0
 11 12  2  0
 11 13  1  0
 13 14  1  0
 13 15  1  0
 15 16  1  0
 16 17  1  0
 16 18  1  0
 18 19  2  0
 19 20  1  0
 20 21  2  0
 21 22  1  0
 22 23  2  0
 15 24  1  0
 24 25  1  0
 25 26  2  0
 26 27  1  0
 27 28  2  0
 28 29  1  0
 25 30  1  0
 30 31  1  0
 31 32  2  0
 31 33  2  0
 31 34  1  0
 34 35  2  0
 35 36  1  0
 36 37  2  0
 37 38  1  0
 38 39  2  0
  7  1  1  0
 14  9  1  0
 17 14  1  0
 23 18  1  0
 29 24  2  0
 39 34  1  0
  1 40  1  0
  2 41  1  0
  3 42  1  0
  4 43  1  0
  6 44  1  0
  6 45  1  0
  6 46  1  0
 13 47  1  0
 14 48  1  0
 15 49  1  0
 19 50  1  0
 20 51  1  0
 21 52  1  0
 22 53  1  0
 23 54  1  0
 26 55  1  0
 27 56  1  0
 28 57  1  0
 29 58  1  0
 35 59  1  0
 36 60  1  0
 37 61  1  0
 38 62  1  0
 39 63  1  0
M  END
>  <mol_id>  (34) 
STL001057

>  <drugclip_rank>  (34) 
34

>  <conformer>  (34) 
2

>  <align_rmsd>  (34) 
1.232

$$$$
OSSM_170358
     RDKit          3D

 54 58  0  0  0  0  0  0  0  0999 V2000
   -0.7638    2.7087    0.0289 C   0  0  0  0  0  0  0  0  0  0  0  0
    0.5352    3.2058    0.1544 C   0  0  0  0  0  0  0  0  0  0  0  0
    1.0326    3.5539    1.4089 C   0  0  0  0  0  0  0  0  0  0  0  0
    0.2317    3.4091    2.5394 C   0  0  0  0  0  0  0  0  0  0  0  0
   -1.0664    2.9119    2.4168 C   0  0  0  0  0  0  0  0  0  0  0  0
   -1.5767    2.5510    1.1613 C   0  0  0  0  0  0  0  0  0  0  0  0
   -2.9805    1.9933    1.0437 C   0  0  0  0  0  0  0  0  0  0  0  0
   -3.1632    0.7203    1.8008 N   0  0  0  0  0  0  0  0  0  0  0  0
   -4.7756    0.3444    2.1802 S   0  0  0  0  0  0  0  0  0  0  0  0
   -4.7670   -0.7937    3.0752 O   0  0  0  0  0  0  0  0  0  0  0  0
   -5.4887    1.5626    2.4862 O   0  0  0  0  0  0  0  0  0  0  0  0
   -2.3299   -0.4324    1.2440 C   0  0  0  0  0  0  0  0  0  0  0  0
   -3.1673   -1.6060    0.6220 C   0  0  0  0  0  0  0  0  0  0  0  0
   -3.4926   -2.6278    1.5636 O   0  0  0  0  0  0  0  0  0  0  0  0
   -4.4510   -1.1613   -0.0462 C   0  0  0  0  0  0  0  0  0  0  0  0
   -5.3062   -0.2568    0.6049 C   0  0  0  0  0  0  0  0  0  0  0  0
   -4.8428   -1.6608   -1.2923 C   0  0  0  0  0  0  0  0  0  0  0  0
   -6.0415   -1.2355   -1.8736 C   0  0  0  0  0  0  0  0  0  0  0  0
   -6.8644   -0.3162   -1.2164 C   0  0  0  0  0  0  0  0  0  0  0  0
   -6.4996    0.1805    0.0327 C   0  0  0  0  0  0  0  0  0  0  0  0
   -1.3495   -0.8830    2.3501 C   0  0  0  0  0  0  0  0  0  0  0  0
   -0.1454   -1.6388    1.8358 C   0  0  0  0  0  0  0  0  0  0  0  0
    0.9793   -0.9916    1.4969 C   0  0  0  0  0  0  0  0  0  0  0  0
   -0.2406   -3.1440    1.7578 C   0  0  0  0  0  0  0  0  0  0  0  0
    0.9930   -3.8599    1.5939 O   0  0  0  0  0  0  0  0  0  0  0  0
    2.0599   -3.1687    1.0933 C   0  0  0  0  0  0  0  0  0  0  0  0
    2.1083   -1.7751    1.0223 C   0  0  0  0  0  0  0  0  0  0  0  0
    3.1525   -3.9308    0.6804 C   0  0  0  0  0  0  0  0  0  0  0  0
    4.2936   -3.3035    0.1796 C   0  0  0  0  0  0  0  0  0  0  0  0
    4.3450   -1.9125    0.1003 C   0  0  0  0  0  0  0  0  0  0  0  0
    3.2562   -1.1485    0.5235 C   0  0  0  0  0  0  0  0  0  0  0  0
   -1.1340    2.4447   -0.9588 H   0  0  0  0  0  0  0  0  0  0  0  0
    1.1620    3.3230   -0.7268 H   0  0  0  0  0  0  0  0  0  0  0  0
    2.0439    3.9418    1.5053 H   0  0  0  0  0  0  0  0  0  0  0  0
    0.6174    3.6825    3.5187 H   0  0  0  0  0  0  0  0  0  0  0  0
   -1.6814    2.7952    3.3080 H   0  0  0  0  0  0  0  0  0  0  0  0
   -3.6513    2.7714    1.4240 H   0  0  0  0  0  0  0  0  0  0  0  0
   -3.2398    1.8329   -0.0100 H   0  0  0  0  0  0  0  0  0  0  0  0
   -1.7504   -0.0281    0.4027 H   0  0  0  0  0  0  0  0  0  0  0  0
   -2.5318   -2.0888   -0.1298 H   0  0  0  0  0  0  0  0  0  0  0  0
   -3.9927   -2.2236    2.3058 H   0  0  0  0  0  0  0  0  0  0  0  0
   -4.2266   -2.3893   -1.8158 H   0  0  0  0  0  0  0  0  0  0  0  0
   -6.3409   -1.6305   -2.8425 H   0  0  0  0  0  0  0  0  0  0  0  0
   -7.7959    0.0031   -1.6782 H   0  0  0  0  0  0  0  0  0  0  0  0
   -7.1429    0.8886    0.5495 H   0  0  0  0  0  0  0  0  0  0  0  0
   -1.8644   -1.4690    3.1212 H   0  0  0  0  0  0  0  0  0  0  0  0
   -0.9871    0.0030    2.8894 H   0  0  0  0  0  0  0  0  0  0  0  0
    1.0729    0.0876    1.5605 H   0  0  0  0  0  0  0  0  0  0  0  0
   -0.6931   -3.5281    2.6781 H   0  0  0  0  0  0  0  0  0  0  0  0
   -0.8901   -3.4336    0.9262 H   0  0  0  0  0  0  0  0  0  0  0  0
    3.1131   -5.0141    0.7514 H   0  0  0  0  0  0  0  0  0  0  0  0
    5.1426   -3.8999   -0.1410 H   0  0  0  0  0  0  0  0  0  0  0  0
    5.2360   -1.4225   -0.2828 H   0  0  0  0  0  0  0  0  0  0  0  0
    3.3138   -0.0644    0.4672 H   0  0  0  0  0  0  0  0  0  0  0  0
  1  2  2  0
  2  3  1  0
  3  4  2  0
  4  5  1  0
  5  6  2  0
  6  7  1  0
  7  8  1  0
  8  9  1  0
  9 10  2  0
  9 11  2  0
  8 12  1  0
 12 13  1  0
 13 14  1  0
 13 15  1  0
 15 16  2  0
 15 17  1  0
 17 18  2  0
 18 19  1  0
 19 20  2  0
 12 21  1  0
 21 22  1  0
 22 23  2  0
 22 24  1  0
 24 25  1  0
 25 26  1  0
 26 27  2  0
 26 28  1  0
 28 29  2  0
 29 30  1  0
 30 31  2  0
  6  1  1  0
 16  9  1  0
 20 16  1  0
 27 23  1  0
 31 27  1  0
  1 32  1  0
  2 33  1  0
  3 34  1  0
  4 35  1  0
  5 36  1  0
  7 37  1  0
  7 38  1  0
 12 39  1  0
 13 40  1  0
 14 41  1  0
 17 42  1  0
 18 43  1  0
 19 44  1  0
 20 45  1  0
 21 46  1  0
 21 47  1  0
 23 48  1  0
 24 49  1  0
 24 50  1  0
 28 51  1  0
 29 52  1  0
 30 53  1  0
 31 54  1  0
M  END
>  <mol_id>  (35) 
OSSM_170358

>  <drugclip_rank>  (35) 
35

>  <conformer>  (35) 
1

>  <align_rmsd>  (35) 
1.02

$$$$
STK618463
     RDKit          3D

 60 63  0  0  0  0  0  0  0  0999 V2000
   -1.2303   -6.3263    1.0244 C   0  0  0  0  0  0  0  0  0  0  0  0
   -1.3106   -7.6019    1.5870 C   0  0  0  0  0  0  0  0  0  0  0  0
   -2.5402   -8.1028    2.0077 C   0  0  0  0  0  0  0  0  0  0  0  0
   -3.6893   -7.3282    1.8681 C   0  0  0  0  0  0  0  0  0  0  0  0
   -3.6100   -6.0532    1.3044 C   0  0  0  0  0  0  0  0  0  0  0  0
   -2.3802   -5.5371    0.8719 C   0  0  0  0  0  0  0  0  0  0  0  0
   -2.2905   -4.1540    0.2644 C   0  0  0  0  0  0  0  0  0  0  0  0
   -1.8144   -3.1386    1.2401 N   0  0  0  0  0  0  0  0  0  0  0  0
   -3.0352   -2.2175    1.9940 S   0  0  0  0  0  0  0  0  0  0  0  0
   -4.2244   -3.0247    2.1483 O   0  0  0  0  0  0  0  0  0  0  0  0
   -2.4432   -1.5049    3.1053 O   0  0  0  0  0  0  0  0  0  0  0  0
   -0.6742   -2.2527    0.7904 C   0  0  0  0  0  0  0  0  0  0  0  0
   -1.1105   -1.3419   -0.3946 C   0  0  0  0  0  0  0  0  0  0  0  0
   -1.1460   -2.0965   -1.6142 O   0  0  0  0  0  0  0  0  0  0  0  0
   -2.4442   -0.6372   -0.2207 C   0  0  0  0  0  0  0  0  0  0  0  0
   -3.3863   -0.9794    0.7642 C   0  0  0  0  0  0  0  0  0  0  0  0
   -2.7805    0.3978   -1.1152 C   0  0  0  0  0  0  0  0  0  0  0  0
   -4.0174    1.0430   -1.0399 C   0  0  0  0  0  0  0  0  0  0  0  0
   -4.9443    0.6703   -0.0698 C   0  0  0  0  0  0  0  0  0  0  0  0
   -4.6309   -0.3396    0.8362 C   0  0  0  0  0  0  0  0  0  0  0  0
    0.5975   -3.0820    0.5226 C   0  0  0  0  0  0  0  0  0  0  0  0
    1.8377   -2.2322    0.3589 C   0  0  0  0  0  0  0  0  0  0  0  0
    2.4769   -1.6865    1.4795 C   0  0  0  0  0  0  0  0  0  0  0  0
    3.6123   -0.8871    1.3259 C   0  0  0  0  0  0  0  0  0  0  0  0
    2.3518   -1.9656   -0.9170 C   0  0  0  0  0  0  0  0  0  0  0  0
    3.4880   -1.1664   -1.0722 C   0  0  0  0  0  0  0  0  0  0  0  0
    4.1255   -0.6216    0.0498 C   0  0  0  0  0  0  0  0  0  0  0  0
    5.3359    0.2381   -0.0566 C   0  0  0  0  0  0  0  0  0  0  0  0
    5.8983    0.7313    0.9082 O   0  0  0  0  0  0  0  0  0  0  0  0
    5.7012    0.3871   -1.3543 O   0  0  0  0  0  0  0  0  0  0  0  0
    6.8622    1.2041   -1.5955 C   0  0  0  0  0  0  0  0  0  0  0  0
    7.4512    0.7629   -2.9299 C   0  0  0  0  0  0  0  0  0  0  0  0
    6.4510    2.6714   -1.6462 C   0  0  0  0  0  0  0  0  0  0  0  0
   -0.2607   -5.9533    0.7064 H   0  0  0  0  0  0  0  0  0  0  0  0
   -0.4120   -8.2022    1.7019 H   0  0  0  0  0  0  0  0  0  0  0  0
   -2.6025   -9.0929    2.4511 H   0  0  0  0  0  0  0  0  0  0  0  0
   -4.6487   -7.7112    2.2058 H   0  0  0  0  0  0  0  0  0  0  0  0
   -4.5182   -5.4598    1.2174 H   0  0  0  0  0  0  0  0  0  0  0  0
   -1.6257   -4.2313   -0.5999 H   0  0  0  0  0  0  0  0  0  0  0  0
   -3.2579   -3.8646   -0.1644 H   0  0  0  0  0  0  0  0  0  0  0  0
   -0.4388   -1.5934    1.6379 H   0  0  0  0  0  0  0  0  0  0  0  0
   -0.3434   -0.5689   -0.5269 H   0  0  0  0  0  0  0  0  0  0  0  0
   -1.8749   -1.7666   -2.1678 H   0  0  0  0  0  0  0  0  0  0  0  0
   -2.0748    0.7101   -1.8848 H   0  0  0  0  0  0  0  0  0  0  0  0
   -4.2587    1.8395   -1.7406 H   0  0  0  0  0  0  0  0  0  0  0  0
   -5.9065    1.1736   -0.0123 H   0  0  0  0  0  0  0  0  0  0  0  0
   -5.3508   -0.6169    1.6048 H   0  0  0  0  0  0  0  0  0  0  0  0
    0.7682   -3.7699    1.3615 H   0  0  0  0  0  0  0  0  0  0  0  0
    0.4838   -3.7243   -0.3580 H   0  0  0  0  0  0  0  0  0  0  0  0
    2.0986   -1.8819    2.4820 H   0  0  0  0  0  0  0  0  0  0  0  0
    4.0966   -0.4728    2.2089 H   0  0  0  0  0  0  0  0  0  0  0  0
    1.8687   -2.3779   -1.8018 H   0  0  0  0  0  0  0  0  0  0  0  0
    3.8640   -0.9788   -2.0751 H   0  0  0  0  0  0  0  0  0  0  0  0
    7.6145    1.0436   -0.8134 H   0  0  0  0  0  0  0  0  0  0  0  0
    7.7250   -0.2972   -2.8928 H   0  0  0  0  0  0  0  0  0  0  0  0
    6.7191    0.8698   -3.7384 H   0  0  0  0  0  0  0  0  0  0  0  0
    8.3426    1.3446   -3.1834 H   0  0  0  0  0  0  0  0  0  0  0  0
    7.3066    3.3147   -1.8733 H   0  0  0  0  0  0  0  0  0  0  0  0
    5.6770    2.8346   -2.4049 H   0  0  0  0  0  0  0  0  0  0  0  0
    6.0240    2.9913   -0.6898 H   0  0  0  0  0  0  0  0  0  0  0  0
  1  2  2  0
  2  3  1  0
  3  4  2  0
  4  5  1  0
  5  6  2  0
  6  7  1  0
  7  8  1  0
  8  9  1  0
  9 10  2  0
  9 11  2  0
  8 12  1  0
 12 13  1  0
 13 14  1  0
 13 15  1  0
 15 16  2  0
 15 17  1  0
 17 18  2  0
 18 19  1  0
 19 20  2  0
 12 21  1  0
 21 22  1  0
 22 23  2  0
 23 24  1  0
 22 25  1  0
 25 26  2  0
 26 27  1  0
 27 28  1  0
 28 29  2  0
 28 30  1  0
 30 31  1  0
 31 32  1  0
 31 33  1  0
  6  1  1  0
 16  9  1  0
 20 16  1  0
 27 24  2  0
  1 34  1  0
  2 35  1  0
  3 36  1  0
  4 37  1  0
  5 38  1  0
  7 39  1  0
  7 40  1  0
 12 41  1  0
 13 42  1  0
 14 43  1  0
 17 44  1  0
 18 45  1  0
 19 46  1  0
 20 47  1  0
 21 48  1  0
 21 49  1  0
 23 50  1  0
 24 51  1  0
 25 52  1  0
 26 53  1  0
 31 54  1  0
 32 55  1  0
 32 56  1  0
 32 57  1  0
 33 58  1  0
 33 59  1  0
 33 60  1  0
M  END
>  <mol_id>  (36) 
STK618463

>  <drugclip_rank>  (36) 
36

>  <conformer>  (36) 
18

>  <align_rmsd>  (36) 
0.874

$$$$
G747-0519
     RDKit          3D

 63 66  0  0  0  0  0  0  0  0999 V2000
   -2.1975   -3.5630    5.5831 C   0  0  0  0  0  0  0  0  0  0  0  0
   -3.0246   -2.5577    6.1401 C   0  0  0  0  0  0  0  0  0  0  0  0
   -2.5152   -1.3577    5.7039 C   0  0  0  0  0  0  0  0  0  0  0  0
   -1.4298   -1.5610    4.9163 O   0  0  0  0  0  0  0  0  0  0  0  0
   -1.2400   -2.9104    4.8310 C   0  0  0  0  0  0  0  0  0  0  0  0
   -0.0892   -3.3846    4.0083 C   0  0  0  0  0  0  0  0  0  0  0  0
   -0.1800   -2.8786    2.6341 N   0  0  0  0  0  0  0  0  0  0  0  0
   -0.9902   -3.4948    1.6775 C   0  0  0  0  0  0  0  0  0  0  0  0
   -1.7398   -4.7567    2.0095 C   0  0  0  0  0  0  0  0  0  0  0  0
   -1.0876   -2.9592    0.4505 C   0  0  0  0  0  0  0  0  0  0  0  0
   -0.3925   -1.7470    0.1070 C   0  0  0  0  0  0  0  0  0  0  0  0
   -0.6094   -1.2721   -1.1676 O   0  0  0  0  0  0  0  0  0  0  0  0
    0.5594   -1.7200    2.3523 C   0  0  0  0  0  0  0  0  0  0  0  0
    1.3337   -1.2107    3.1644 O   0  0  0  0  0  0  0  0  0  0  0  0
    0.4036   -1.1123    0.9855 C   0  0  0  0  0  0  0  0  0  0  0  0
    1.1854    0.1836    0.7608 C   0  0  0  0  0  0  0  0  0  0  0  0
    0.2369    1.3661    1.0330 C   0  0  0  0  0  0  0  0  0  0  0  0
   -0.6536    1.8392    0.0545 C   0  0  0  0  0  0  0  0  0  0  0  0
   -1.5232    2.8955    0.3307 C   0  0  0  0  0  0  0  0  0  0  0  0
   -1.5225    3.4876    1.5919 C   0  0  0  0  0  0  0  0  0  0  0  0
   -0.6560    3.0220    2.5788 C   0  0  0  0  0  0  0  0  0  0  0  0
    0.2151    1.9663    2.3038 C   0  0  0  0  0  0  0  0  0  0  0  0
    1.9099    0.2959   -0.5479 N   0  0  0  0  0  0  0  0  0  0  0  0
    2.6558    1.5563   -0.7105 C   0  0  0  0  0  0  0  0  0  0  0  0
    3.9047    1.6682    0.1687 C   0  0  0  0  0  0  0  0  0  0  0  0
    4.8492    0.4784   -0.0237 C   0  0  0  0  0  0  0  0  0  0  0  0
    4.0795   -0.8450    0.0589 C   0  0  0  0  0  0  0  0  0  0  0  0
    2.8153   -0.8376   -0.8085 C   0  0  0  0  0  0  0  0  0  0  0  0
    5.6296    0.5886   -1.3275 C   0  0  0  0  0  0  0  0  0  0  0  0
    5.6193   -0.2392   -2.2281 O   0  0  0  0  0  0  0  0  0  0  0  0
    6.3832    1.7257   -1.3270 O   0  0  0  0  0  0  0  0  0  0  0  0
    7.1814    1.9493   -2.4984 C   0  0  0  0  0  0  0  0  0  0  0  0
    8.5216    1.2522   -2.3594 C   0  0  0  0  0  0  0  0  0  0  0  0
   -2.2888   -4.6327    5.7095 H   0  0  0  0  0  0  0  0  0  0  0  0
   -3.8839   -2.6881    6.7824 H   0  0  0  0  0  0  0  0  0  0  0  0
   -2.7923   -0.3240    5.8559 H   0  0  0  0  0  0  0  0  0  0  0  0
   -0.0401   -4.4784    3.9959 H   0  0  0  0  0  0  0  0  0  0  0  0
    0.8410   -3.0523    4.4829 H   0  0  0  0  0  0  0  0  0  0  0  0
   -1.0513   -5.5530    2.3094 H   0  0  0  0  0  0  0  0  0  0  0  0
   -2.3026   -5.1346    1.1482 H   0  0  0  0  0  0  0  0  0  0  0  0
   -2.4652   -4.5861    2.8092 H   0  0  0  0  0  0  0  0  0  0  0  0
   -1.7109   -3.4321   -0.3009 H   0  0  0  0  0  0  0  0  0  0  0  0
   -1.2198   -1.8557   -1.6426 H   0  0  0  0  0  0  0  0  0  0  0  0
    1.9689    0.2474    1.5228 H   0  0  0  0  0  0  0  0  0  0  0  0
   -0.6620    1.3820   -0.9330 H   0  0  0  0  0  0  0  0  0  0  0  0
   -2.2015    3.2522   -0.4392 H   0  0  0  0  0  0  0  0  0  0  0  0
   -2.2014    4.3078    1.8079 H   0  0  0  0  0  0  0  0  0  0  0  0
   -0.6614    3.4749    3.5665 H   0  0  0  0  0  0  0  0  0  0  0  0
    0.8721    1.6025    3.0922 H   0  0  0  0  0  0  0  0  0  0  0  0
    2.0185    2.4305   -0.5426 H   0  0  0  0  0  0  0  0  0  0  0  0
    2.9552    1.6395   -1.7641 H   0  0  0  0  0  0  0  0  0  0  0  0
    3.6122    1.7285    1.2239 H   0  0  0  0  0  0  0  0  0  0  0  0
    4.4111    2.6141   -0.0563 H   0  0  0  0  0  0  0  0  0  0  0  0
    5.6034    0.4785    0.7743 H   0  0  0  0  0  0  0  0  0  0  0  0
    3.8071   -1.0371    1.1040 H   0  0  0  0  0  0  0  0  0  0  0  0
    4.7199   -1.6818   -0.2465 H   0  0  0  0  0  0  0  0  0  0  0  0
    3.0998   -0.8048   -1.8679 H   0  0  0  0  0  0  0  0  0  0  0  0
    2.3018   -1.7984   -0.6999 H   0  0  0  0  0  0  0  0  0  0  0  0
    7.3356    3.0303   -2.5785 H   0  0  0  0  0  0  0  0  0  0  0  0
    6.6552    1.6319   -3.4061 H   0  0  0  0  0  0  0  0  0  0  0  0
    9.1593    1.4624   -3.2225 H   0  0  0  0  0  0  0  0  0  0  0  0
    9.0352    1.5848   -1.4513 H   0  0  0  0  0  0  0  0  0  0  0  0
    8.3946    0.1684   -2.2744 H   0  0  0  0  0  0  0  0  0  0  0  0
  1  2  1  0
  2  3  2  0
  3  4  1  0
  4  5  1  0
  5  6  1  0
  6  7  1  0
  7  8  1  0
  8  9  1  0
  8 10  2  0
 10 11  1  0
 11 12  1  0
  7 13  1  0
 13 14  2  0
 13 15  1  0
 15 16  1  0
 16 17  1  0
 17 18  2  0
 18 19  1  0
 19 20  2  0
 20 21  1  0
 21 22  2  0
 16 23  1  0
 23 24  1  0
 24 25  1  0
 25 26  1  0
 26 27  1  0
 27 28  1  0
 26 29  1  0
 29 30  2  0
 29 31  1  0
 31 32  1  0
 32 33  1  0
  5  1  2  0
 15 11  2  0
 22 17  1  0
 28 23  1  0
  1 34  1  0
  2 35  1  0
  3 36  1  0
  6 37  1  0
  6 38  1  0
  9 39  1  0
  9 40  1  0
  9 41  1  0
 10 42  1  0
 12 43  1  0
 16 44  1  0
 18 45  1  0
 19 46  1  0
 20 47  1  0
 21 48  1  0
 22 49  1  0
 24 50  1  0
 24 51  1  0
 25 52  1  0
 25 53  1  0
 26 54  1  0
 27 55  1  0
 27 56  1  0
 28 57  1  0
 28 58  1  0
 32 59  1  0
 32 60  1  0
 33 61  1  0
 33 62  1  0
 33 63  1  0
M  END
>  <mol_id>  (37) 
G747-0519

>  <drugclip_rank>  (37) 
37

>  <conformer>  (37) 
18

>  <align_rmsd>  (37) 
0.636

$$$$
OSSM_122961
     RDKit          3D

 56 59  0  0  0  0  0  0  0  0999 V2000
   -1.1339   -6.4282    4.2563 C   0  0  0  0  0  0  0  0  0  0  0  0
   -0.5506   -7.6162    4.6986 C   0  0  0  0  0  0  0  0  0  0  0  0
    0.8364   -7.7254    4.7799 C   0  0  0  0  0  0  0  0  0  0  0  0
    1.6419   -6.6464    4.4203 C   0  0  0  0  0  0  0  0  0  0  0  0
    1.0613   -5.4572    3.9777 C   0  0  0  0  0  0  0  0  0  0  0  0
   -0.3324   -5.3375    3.8928 C   0  0  0  0  0  0  0  0  0  0  0  0
   -0.9603   -4.0597    3.3897 C   0  0  0  0  0  0  0  0  0  0  0  0
   -1.3780   -4.1835    1.9196 C   0  0  0  0  0  0  0  0  0  0  0  0
   -1.6940   -2.8792    1.2590 N   0  0  0  0  0  0  0  0  0  0  0  0
   -3.0796   -2.0995    1.9055 S   0  0  0  0  0  0  0  0  0  0  0  0
   -4.1964   -3.0034    1.7395 O   0  0  0  0  0  0  0  0  0  0  0  0
   -2.7261   -1.5503    3.1955 O   0  0  0  0  0  0  0  0  0  0  0  0
   -0.5476   -1.9072    1.0344 C   0  0  0  0  0  0  0  0  0  0  0  0
   -0.9685   -1.0096   -0.1729 C   0  0  0  0  0  0  0  0  0  0  0  0
   -1.0663   -1.8127   -1.3582 O   0  0  0  0  0  0  0  0  0  0  0  0
   -2.2984   -0.3024   -0.0460 C   0  0  0  0  0  0  0  0  0  0  0  0
   -3.3156   -0.7257    0.8192 C   0  0  0  0  0  0  0  0  0  0  0  0
   -2.5644    0.7964   -0.8827 C   0  0  0  0  0  0  0  0  0  0  0  0
   -3.7966    1.4538   -0.8396 C   0  0  0  0  0  0  0  0  0  0  0  0
   -4.7921    1.0187    0.0318 C   0  0  0  0  0  0  0  0  0  0  0  0
   -4.5560   -0.0750    0.8611 C   0  0  0  0  0  0  0  0  0  0  0  0
    0.7935   -2.6180    0.7232 C   0  0  0  0  0  0  0  0  0  0  0  0
    1.9597   -1.6753    0.5364 C   0  0  0  0  0  0  0  0  0  0  0  0
    2.5223   -0.9904    1.6173 C   0  0  0  0  0  0  0  0  0  0  0  0
    2.0015   -1.1908    2.8701 O   0  0  0  0  0  0  0  0  0  0  0  0
    3.5999   -0.1073    1.4578 C   0  0  0  0  0  0  0  0  0  0  0  0
    4.0350    0.4864    2.6152 O   0  0  0  0  0  0  0  0  0  0  0  0
    5.1327    1.3846    2.4957 C   0  0  0  0  0  0  0  0  0  0  0  0
    4.1243    0.0924    0.1825 C   0  0  0  0  0  0  0  0  0  0  0  0
    3.5746   -0.5841   -0.9109 C   0  0  0  0  0  0  0  0  0  0  0  0
    2.5018   -1.4615   -0.7366 C   0  0  0  0  0  0  0  0  0  0  0  0
   -2.2183   -6.3575    4.2004 H   0  0  0  0  0  0  0  0  0  0  0  0
   -1.1793   -8.4565    4.9814 H   0  0  0  0  0  0  0  0  0  0  0  0
    1.2894   -8.6506    5.1260 H   0  0  0  0  0  0  0  0  0  0  0  0
    2.7235   -6.7302    4.4860 H   0  0  0  0  0  0  0  0  0  0  0  0
    1.7043   -4.6232    3.7028 H   0  0  0  0  0  0  0  0  0  0  0  0
   -0.2618   -3.2279    3.5356 H   0  0  0  0  0  0  0  0  0  0  0  0
   -1.8293   -3.8319    4.0182 H   0  0  0  0  0  0  0  0  0  0  0  0
   -0.6149   -4.7031    1.3290 H   0  0  0  0  0  0  0  0  0  0  0  0
   -2.2599   -4.8326    1.8396 H   0  0  0  0  0  0  0  0  0  0  0  0
   -0.4333   -1.2862    1.9310 H   0  0  0  0  0  0  0  0  0  0  0  0
   -0.1962   -0.2519   -0.3462 H   0  0  0  0  0  0  0  0  0  0  0  0
   -1.6286   -2.5730   -1.1125 H   0  0  0  0  0  0  0  0  0  0  0  0
   -1.8089    1.1363   -1.5900 H   0  0  0  0  0  0  0  0  0  0  0  0
   -3.9818    2.3006   -1.4963 H   0  0  0  0  0  0  0  0  0  0  0  0
   -5.7525    1.5275    0.0603 H   0  0  0  0  0  0  0  0  0  0  0  0
   -5.3361   -0.4179    1.5382 H   0  0  0  0  0  0  0  0  0  0  0  0
    0.6893   -3.2639   -0.1584 H   0  0  0  0  0  0  0  0  0  0  0  0
    1.0733   -3.2960    1.5369 H   0  0  0  0  0  0  0  0  0  0  0  0
    2.5418   -0.6287    3.4613 H   0  0  0  0  0  0  0  0  0  0  0  0
    5.3592    1.7696    3.4947 H   0  0  0  0  0  0  0  0  0  0  0  0
    6.0258    0.8692    2.1268 H   0  0  0  0  0  0  0  0  0  0  0  0
    4.8761    2.2387    1.8601 H   0  0  0  0  0  0  0  0  0  0  0  0
    4.9566    0.7638    0.0008 H   0  0  0  0  0  0  0  0  0  0  0  0
    3.9841   -0.4264   -1.9063 H   0  0  0  0  0  0  0  0  0  0  0  0
    2.0865   -1.9717   -1.6046 H   0  0  0  0  0  0  0  0  0  0  0  0
  1  2  2  0
  2  3  1  0
  3  4  2  0
  4  5  1  0
  5  6  2  0
  6  7  1  0
  7  8  1  0
  8  9  1  0
  9 10  1  0
 10 11  2  0
 10 12  2  0
  9 13  1  0
 13 14  1  0
 14 15  1  0
 14 16  1  0
 16 17  2  0
 16 18  1  0
 18 19  2  0
 19 20  1  0
 20 21  2  0
 13 22  1  0
 22 23  1  0
 23 24  2  0
 24 25  1  0
 24 26  1  0
 26 27  1  0
 27 28  1  0
 26 29  2  0
 29 30  1  0
 30 31  2  0
  6  1  1  0
 17 10  1  0
 21 17  1  0
 31 23  1  0
  1 32  1  0
  2 33  1  0
  3 34  1  0
  4 35  1  0
  5 36  1  0
  7 37  1  0
  7 38  1  0
  8 39  1  0
  8 40  1  0
 13 41  1  0
 14 42  1  0
 15 43  1  0
 18 44  1  0
 19 45  1  0
 20 46  1  0
 21 47  1  0
 22 48  1  0
 22 49  1  0
 25 50  1  0
 28 51  1  0
 28 52  1  0
 28 53  1  0
 29 54  1  0
 30 55  1  0
 31 56  1  0
M  END
>  <mol_id>  (38) 
OSSM_122961

>  <drugclip_rank>  (38) 
38

>  <conformer>  (38) 
18

>  <align_rmsd>  (38) 
1.034

$$$$
STL603381
     RDKit          3D

 60 63  0  0  0  0  0  0  0  0999 V2000
   -1.3990   -4.2360   -0.4508 C   0  0  0  0  0  0  0  0  0  0  0  0
   -1.0606   -5.3151   -1.2759 C   0  0  0  0  0  0  0  0  0  0  0  0
   -2.0346   -5.9422   -2.0426 C   0  0  0  0  0  0  0  0  0  0  0  0
   -3.3526   -5.5087   -1.9617 C   0  0  0  0  0  0  0  0  0  0  0  0
   -3.6919   -4.4441   -1.1169 C   0  0  0  0  0  0  0  0  0  0  0  0
   -5.0069   -4.0549   -1.0757 O   0  0  0  0  0  0  0  0  0  0  0  0
   -5.7772   -4.9701   -0.2946 C   0  0  0  0  0  0  0  0  0  0  0  0
   -2.7164   -3.7376   -0.3809 C   0  0  0  0  0  0  0  0  0  0  0  0
   -3.0897   -2.5493    0.5312 C   0  0  0  0  0  0  0  0  0  0  0  0
   -3.8259   -3.1820    1.5960 O   0  0  0  0  0  0  0  0  0  0  0  0
   -3.9430   -1.4202   -0.1029 C   0  0  0  0  0  0  0  0  0  0  0  0
   -4.6306   -0.4954    0.7138 C   0  0  0  0  0  0  0  0  0  0  0  0
   -4.5789   -0.6865    2.0726 O   0  0  0  0  0  0  0  0  0  0  0  0
   -4.2900    0.4994    2.8139 C   0  0  0  0  0  0  0  0  0  0  0  0
   -5.3683    0.5534    0.1536 C   0  0  0  0  0  0  0  0  0  0  0  0
   -5.3923    0.7326   -1.2277 C   0  0  0  0  0  0  0  0  0  0  0  0
   -4.6817   -0.1342   -2.0503 C   0  0  0  0  0  0  0  0  0  0  0  0
   -3.9594   -1.1937   -1.4951 C   0  0  0  0  0  0  0  0  0  0  0  0
   -1.8300   -1.8310    1.1731 C   0  0  0  0  0  0  0  0  0  0  0  0
   -1.6078   -1.8448    2.3869 O   0  0  0  0  0  0  0  0  0  0  0  0
   -1.0363   -1.1505    0.2542 N   0  0  0  0  0  0  0  0  0  0  0  0
    0.0909   -0.4429    0.6959 N   0  0  0  0  0  0  0  0  0  0  0  0
   -0.0335    0.9811    0.6124 C   0  0  0  0  0  0  0  0  0  0  0  0
   -1.1985    1.6299    0.1673 C   0  0  0  0  0  0  0  0  0  0  0  0
   -1.2816    3.0264    0.1188 C   0  0  0  0  0  0  0  0  0  0  0  0
   -0.2040    3.8066    0.5269 C   0  0  0  0  0  0  0  0  0  0  0  0
    0.9543    3.1919    0.9902 C   0  0  0  0  0  0  0  0  0  0  0  0
    1.0340    1.7967    1.0367 C   0  0  0  0  0  0  0  0  0  0  0  0
    1.2819   -1.1789    0.4225 C   0  0  0  0  0  0  0  0  0  0  0  0
    2.1463   -0.8258   -0.6259 C   0  0  0  0  0  0  0  0  0  0  0  0
    3.2978   -1.5739   -0.8849 C   0  0  0  0  0  0  0  0  0  0  0  0
    3.6009   -2.6835   -0.0985 C   0  0  0  0  0  0  0  0  0  0  0  0
    2.7562   -3.0453    0.9487 C   0  0  0  0  0  0  0  0  0  0  0  0
    1.6056   -2.2971    1.2068 C   0  0  0  0  0  0  0  0  0  0  0  0
   -0.5986   -3.8130    0.1510 H   0  0  0  0  0  0  0  0  0  0  0  0
   -0.0319   -5.6668   -1.3087 H   0  0  0  0  0  0  0  0  0  0  0  0
   -1.7720   -6.7759   -2.6879 H   0  0  0  0  0  0  0  0  0  0  0  0
   -4.1202   -5.9996   -2.5537 H   0  0  0  0  0  0  0  0  0  0  0  0
   -6.0065   -5.8687   -0.8760 H   0  0  0  0  0  0  0  0  0  0  0  0
   -6.7221   -4.4798   -0.0417 H   0  0  0  0  0  0  0  0  0  0  0  0
   -5.2762   -5.2437    0.6405 H   0  0  0  0  0  0  0  0  0  0  0  0
   -4.0318   -2.4614    2.2222 H   0  0  0  0  0  0  0  0  0  0  0  0
   -3.5031    1.0961    2.3401 H   0  0  0  0  0  0  0  0  0  0  0  0
   -5.1977    1.0937    2.9567 H   0  0  0  0  0  0  0  0  0  0  0  0
   -3.9319    0.1937    3.8014 H   0  0  0  0  0  0  0  0  0  0  0  0
   -5.9433    1.2285    0.7805 H   0  0  0  0  0  0  0  0  0  0  0  0
   -5.9706    1.5445   -1.6615 H   0  0  0  0  0  0  0  0  0  0  0  0
   -4.6999    0.0022   -3.1291 H   0  0  0  0  0  0  0  0  0  0  0  0
   -3.4244   -1.8522   -2.1762 H   0  0  0  0  0  0  0  0  0  0  0  0
   -1.1385   -1.2473   -0.7493 H   0  0  0  0  0  0  0  0  0  0  0  0
   -2.0672    1.0645   -0.1538 H   0  0  0  0  0  0  0  0  0  0  0  0
   -2.1937    3.5005   -0.2347 H   0  0  0  0  0  0  0  0  0  0  0  0
   -0.2699    4.8907    0.4931 H   0  0  0  0  0  0  0  0  0  0  0  0
    1.7953    3.7931    1.3261 H   0  0  0  0  0  0  0  0  0  0  0  0
    1.9413    1.3420    1.4296 H   0  0  0  0  0  0  0  0  0  0  0  0
    1.9206    0.0307   -1.2559 H   0  0  0  0  0  0  0  0  0  0  0  0
    3.9570   -1.2894   -1.7011 H   0  0  0  0  0  0  0  0  0  0  0  0
    4.4982   -3.2637   -0.2984 H   0  0  0  0  0  0  0  0  0  0  0  0
    2.9933   -3.9045    1.5705 H   0  0  0  0  0  0  0  0  0  0  0  0
    0.9619   -2.5754    2.0396 H   0  0  0  0  0  0  0  0  0  0  0  0
  1  2  2  0
  2  3  1  0
  3  4  2  0
  4  5  1  0
  5  6  1  0
  6  7  1  0
  5  8  2  0
  8  9  1  0
  9 10  1  0
  9 11  1  0
 11 12  2  0
 12 13  1  0
 13 14  1  0
 12 15  1  0
 15 16  2  0
 16 17  1  0
 17 18  2  0
  9 19  1  0
 19 20  2  0
 19 21  1  0
 21 22  1  0
 22 23  1  0
 23 24  2  0
 24 25  1  0
 25 26  2  0
 26 27  1  0
 27 28  2  0
 22 29  1  0
 29 30  2  0
 30 31  1  0
 31 32  2  0
 32 33  1  0
 33 34  2  0
  8  1  1  0
 18 11  1  0
 28 23  1  0
 34 29  1  0
  1 35  1  0
  2 36  1  0
  3 37  1  0
  4 38  1  0
  7 39  1  0
  7 40  1  0
  7 41  1  0
 10 42  1  0
 14 43  1  0
 14 44  1  0
 14 45  1  0
 15 46  1  0
 16 47  1  0
 17 48  1  0
 18 49  1  0
 21 50  1  0
 24 51  1  0
 25 52  1  0
 26 53  1  0
 27 54  1  0
 28 55  1  0
 30 56  1  0
 31 57  1  0
 32 58  1  0
 33 59  1  0
 34 60  1  0
M  END
>  <mol_id>  (39) 
STL603381

>  <drugclip_rank>  (39) 
39

>  <conformer>  (39) 
26

>  <align_rmsd>  (39) 
0.861

$$$$
G747-0063
     RDKit          3D

 65 68  0  0  0  0  0  0  0  0999 V2000
  -10.0772    4.0350    2.1744 C   0  0  0  0  0  0  0  0  0  0  0  0
   -9.3191    3.2217    3.2058 C   0  0  0  0  0  0  0  0  0  0  0  0
   -7.9127    3.2409    2.9196 O   0  0  0  0  0  0  0  0  0  0  0  0
   -7.4693    2.2924    2.0455 C   0  0  0  0  0  0  0  0  0  0  0  0
   -8.1817    1.4719    1.4849 O   0  0  0  0  0  0  0  0  0  0  0  0
   -5.9660    2.4328    1.8450 C   0  0  0  0  0  0  0  0  0  0  0  0
   -5.2054    2.2009    3.1528 C   0  0  0  0  0  0  0  0  0  0  0  0
   -5.1490    0.7157    3.5200 C   0  0  0  0  0  0  0  0  0  0  0  0
   -5.4531    1.4956    0.7462 C   0  0  0  0  0  0  0  0  0  0  0  0
   -5.3373    0.0410    1.2193 C   0  0  0  0  0  0  0  0  0  0  0  0
   -4.5683   -0.1409    2.4704 N   0  0  0  0  0  0  0  0  0  0  0  0
   -3.0836    0.0562    2.2704 C   0  0  0  0  0  0  0  0  0  0  0  0
   -2.2773    0.0499    3.5897 C   0  0  0  0  0  0  0  0  0  0  0  0
   -2.5089   -0.9557    4.4797 N   0  0  0  0  0  0  0  0  0  0  0  0
   -1.7760   -0.9689    5.6133 C   0  0  0  0  0  0  0  0  0  0  0  0
   -0.8112   -0.0248    5.9171 C   0  0  0  0  0  0  0  0  0  0  0  0
   -0.5784    0.9944    5.0026 C   0  0  0  0  0  0  0  0  0  0  0  0
   -1.3154    1.0349    3.8222 C   0  0  0  0  0  0  0  0  0  0  0  0
   -2.4679   -1.0067    1.3703 C   0  0  0  0  0  0  0  0  0  0  0  0
   -1.3359   -0.5511    0.5044 C   0  0  0  0  0  0  0  0  0  0  0  0
   -0.9894    0.6307    0.5438 O   0  0  0  0  0  0  0  0  0  0  0  0
   -0.7227   -1.5074   -0.3176 N   0  0  0  0  0  0  0  0  0  0  0  0
   -1.1499   -2.8411   -0.3483 C   0  0  0  0  0  0  0  0  0  0  0  0
   -0.4708   -3.8463   -1.2376 C   0  0  0  0  0  0  0  0  0  0  0  0
   -2.1794   -3.2229    0.4244 C   0  0  0  0  0  0  0  0  0  0  0  0
   -2.8392   -2.2951    1.2932 C   0  0  0  0  0  0  0  0  0  0  0  0
   -3.8550   -2.8517    2.0357 O   0  0  0  0  0  0  0  0  0  0  0  0
    0.4020   -1.0456   -1.1420 C   0  0  0  0  0  0  0  0  0  0  0  0
    1.7647   -1.3988   -0.5835 C   0  0  0  0  0  0  0  0  0  0  0  0
    2.1165   -1.0718    0.7346 C   0  0  0  0  0  0  0  0  0  0  0  0
    3.3838   -1.3822    1.2305 C   0  0  0  0  0  0  0  0  0  0  0  0
    4.3181   -2.0149    0.4132 C   0  0  0  0  0  0  0  0  0  0  0  0
    3.9884   -2.3318   -0.9024 C   0  0  0  0  0  0  0  0  0  0  0  0
    2.7218   -2.0208   -1.4003 C   0  0  0  0  0  0  0  0  0  0  0  0
   -9.9682    3.6026    1.1751 H   0  0  0  0  0  0  0  0  0  0  0  0
  -11.1418    4.0790    2.4210 H   0  0  0  0  0  0  0  0  0  0  0  0
   -9.6839    5.0551    2.1248 H   0  0  0  0  0  0  0  0  0  0  0  0
   -9.6984    2.1954    3.2671 H   0  0  0  0  0  0  0  0  0  0  0  0
   -9.4490    3.6711    4.1956 H   0  0  0  0  0  0  0  0  0  0  0  0
   -5.8047    3.4643    1.5063 H   0  0  0  0  0  0  0  0  0  0  0  0
   -5.6672    2.7543    3.9789 H   0  0  0  0  0  0  0  0  0  0  0  0
   -4.1883    2.5989    3.0544 H   0  0  0  0  0  0  0  0  0  0  0  0
   -6.1675    0.3575    3.7237 H   0  0  0  0  0  0  0  0  0  0  0  0
   -4.6296    0.5967    4.4761 H   0  0  0  0  0  0  0  0  0  0  0  0
   -4.4732    1.8507    0.4045 H   0  0  0  0  0  0  0  0  0  0  0  0
   -6.1114    1.5358   -0.1301 H   0  0  0  0  0  0  0  0  0  0  0  0
   -4.9258   -0.5657    0.4049 H   0  0  0  0  0  0  0  0  0  0  0  0
   -6.3419   -0.3688    1.3826 H   0  0  0  0  0  0  0  0  0  0  0  0
   -2.9556    1.0450    1.8169 H   0  0  0  0  0  0  0  0  0  0  0  0
   -1.9916   -1.7883    6.2929 H   0  0  0  0  0  0  0  0  0  0  0  0
   -0.2497   -0.0860    6.8421 H   0  0  0  0  0  0  0  0  0  0  0  0
    0.1779    1.7480    5.2019 H   0  0  0  0  0  0  0  0  0  0  0  0
   -1.1294    1.8154    3.0900 H   0  0  0  0  0  0  0  0  0  0  0  0
    0.5674   -4.0018   -0.9319 H   0  0  0  0  0  0  0  0  0  0  0  0
   -0.9634   -4.8248   -1.1932 H   0  0  0  0  0  0  0  0  0  0  0  0
   -0.4971   -3.5301   -2.2850 H   0  0  0  0  0  0  0  0  0  0  0  0
   -2.5387   -4.2474    0.4316 H   0  0  0  0  0  0  0  0  0  0  0  0
   -4.2061   -2.1404    2.6168 H   0  0  0  0  0  0  0  0  0  0  0  0
    0.3666    0.0443   -1.2613 H   0  0  0  0  0  0  0  0  0  0  0  0
    0.2766   -1.4442   -2.1552 H   0  0  0  0  0  0  0  0  0  0  0  0
    1.4046   -0.5698    1.3864 H   0  0  0  0  0  0  0  0  0  0  0  0
    3.6399   -1.1283    2.2557 H   0  0  0  0  0  0  0  0  0  0  0  0
    5.3040   -2.2574    0.8003 H   0  0  0  0  0  0  0  0  0  0  0  0
    4.7186   -2.8213   -1.5418 H   0  0  0  0  0  0  0  0  0  0  0  0
    2.4862   -2.2732   -2.4315 H   0  0  0  0  0  0  0  0  0  0  0  0
  1  2  1  0
  2  3  1  0
  3  4  1  0
  4  5  2  0
  4  6  1  0
  6  7  1  0
  7  8  1  0
  6  9  1  0
  9 10  1  0
 10 11  1  0
 11 12  1  0
 12 13  1  0
 13 14  2  0
 14 15  1  0
 15 16  2  0
 16 17  1  0
 17 18  2  0
 12 19  1  0
 19 20  1  0
 20 21  2  0
 20 22  1  0
 22 23  1  0
 23 24  1  0
 23 25  2  0
 25 26  1  0
 26 27  1  0
 22 28  1  0
 28 29  1  0
 29 30  2  0
 30 31  1  0
 31 32  2  0
 32 33  1  0
 33 34  2  0
 11  8  1  0
 18 13  1  0
 26 19  2  0
 34 29  1  0
  1 35  1  0
  1 36  1  0
  1 37  1  0
  2 38  1  0
  2 39  1  0
  6 40  1  0
  7 41  1  0
  7 42  1  0
  8 43  1  0
  8 44  1  0
  9 45  1  0
  9 46  1  0
 10 47  1  0
 10 48  1  0
 12 49  1  0
 15 50  1  0
 16 51  1  0
 17 52  1  0
 18 53  1  0
 24 54  1  0
 24 55  1  0
 24 56  1  0
 25 57  1  0
 27 58  1  0
 28 59  1  0
 28 60  1  0
 30 61  1  0
 31 62  1  0
 32 63  1  0
 33 64  1  0
 34 65  1  0
M  END
>  <mol_id>  (40) 
G747-0063

>  <drugclip_rank>  (40) 
40

>  <conformer>  (40) 
0

>  <align_rmsd>  (40) 
0.764

$$$$
OSSL_649322
     RDKit          3D

 66 70  0  0  0  0  0  0  0  0999 V2000
   -4.5986   -2.4112   -0.2992 C   0  0  0  0  0  0  0  0  0  0  0  0
   -5.5340   -1.4466   -0.6832 C   0  0  0  0  0  0  0  0  0  0  0  0
   -5.1179   -0.2825   -1.3269 C   0  0  0  0  0  0  0  0  0  0  0  0
   -3.7645   -0.0823   -1.5854 C   0  0  0  0  0  0  0  0  0  0  0  0
   -2.8362   -1.0460   -1.1991 C   0  0  0  0  0  0  0  0  0  0  0  0
   -1.5421   -0.8143   -1.4593 F   0  0  0  0  0  0  0  0  0  0  0  0
   -3.2295   -2.2253   -0.5526 C   0  0  0  0  0  0  0  0  0  0  0  0
   -2.2208   -3.2890   -0.1145 C   0  0  0  0  0  0  0  0  0  0  0  0
   -1.4178   -3.8082   -1.2923 C   0  0  0  0  0  0  0  0  0  0  0  0
   -2.2370   -4.5729   -2.2645 C   0  0  0  0  0  0  0  0  0  0  0  0
   -3.1551   -5.3106   -1.9355 O   0  0  0  0  0  0  0  0  0  0  0  0
   -1.8807   -4.2842   -3.5452 O   0  0  0  0  0  0  0  0  0  0  0  0
   -2.6886   -4.9353   -4.5270 C   0  0  0  0  0  0  0  0  0  0  0  0
   -0.0773   -3.6192   -1.4095 C   0  0  0  0  0  0  0  0  0  0  0  0
    0.6128   -4.1033   -2.5207 N   0  0  0  0  0  0  0  0  0  0  0  0
    0.6129   -2.9206   -0.3754 N   0  0  0  0  0  0  0  0  0  0  0  0
    1.9731   -2.5365   -0.5931 C   0  0  0  0  0  0  0  0  0  0  0  0
    3.0118   -3.4707   -0.4703 C   0  0  0  0  0  0  0  0  0  0  0  0
    4.3350   -3.0860   -0.6913 C   0  0  0  0  0  0  0  0  0  0  0  0
    4.6299   -1.7671   -1.0374 C   0  0  0  0  0  0  0  0  0  0  0  0
    3.6043   -0.8306   -1.1664 C   0  0  0  0  0  0  0  0  0  0  0  0
    2.2805   -1.2130   -0.9477 C   0  0  0  0  0  0  0  0  0  0  0  0
   -0.0178   -2.5954    0.8511 C   0  0  0  0  0  0  0  0  0  0  0  0
   -1.3446   -2.7852    1.0124 C   0  0  0  0  0  0  0  0  0  0  0  0
    0.8192   -2.0782    2.0120 C   0  0  0  0  0  0  0  0  0  0  0  0
    0.0239   -1.1880    2.9860 C   0  0  0  0  0  0  0  0  0  0  0  0
   -1.2080   -1.9630    3.4699 C   0  0  0  0  0  0  0  0  0  0  0  0
   -1.9974   -2.5913    2.3447 C   0  0  0  0  0  0  0  0  0  0  0  0
   -3.1248   -3.0497    2.5310 O   0  0  0  0  0  0  0  0  0  0  0  0
   -2.0356   -1.1381    4.4265 C   0  0  0  0  0  0  0  0  0  0  0  0
   -3.1062   -0.6032    4.1781 O   0  0  0  0  0  0  0  0  0  0  0  0
   -1.3870   -1.0454    5.6275 O   0  0  0  0  0  0  0  0  0  0  0  0
   -2.0767   -0.2537    6.5963 C   0  0  0  0  0  0  0  0  0  0  0  0
   -0.1659    0.2113    2.3997 C   0  0  0  0  0  0  0  0  0  0  0  0
   -1.3519    0.6578    1.8020 C   0  0  0  0  0  0  0  0  0  0  0  0
   -1.4443    1.9455    1.2649 C   0  0  0  0  0  0  0  0  0  0  0  0
   -0.3538    2.8084    1.3125 C   0  0  0  0  0  0  0  0  0  0  0  0
    0.8331    2.3857    1.9003 C   0  0  0  0  0  0  0  0  0  0  0  0
    0.9255    1.1005    2.4382 C   0  0  0  0  0  0  0  0  0  0  0  0
   -4.9449   -3.3080    0.2136 H   0  0  0  0  0  0  0  0  0  0  0  0
   -6.5891   -1.6047   -0.4714 H   0  0  0  0  0  0  0  0  0  0  0  0
   -5.8476    0.4670   -1.6213 H   0  0  0  0  0  0  0  0  0  0  0  0
   -3.4230    0.8198   -2.0826 H   0  0  0  0  0  0  0  0  0  0  0  0
   -2.7699   -4.1538    0.2865 H   0  0  0  0  0  0  0  0  0  0  0  0
   -2.5778   -6.0215   -4.4532 H   0  0  0  0  0  0  0  0  0  0  0  0
   -3.7375   -4.6424   -4.4187 H   0  0  0  0  0  0  0  0  0  0  0  0
   -2.3418   -4.6182   -5.5143 H   0  0  0  0  0  0  0  0  0  0  0  0
    0.0113   -4.1795   -3.3415 H   0  0  0  0  0  0  0  0  0  0  0  0
    1.4228   -3.5246   -2.7292 H   0  0  0  0  0  0  0  0  0  0  0  0
    2.7822   -4.5008   -0.2089 H   0  0  0  0  0  0  0  0  0  0  0  0
    5.1346   -3.8161   -0.5960 H   0  0  0  0  0  0  0  0  0  0  0  0
    5.6612   -1.4692   -1.2095 H   0  0  0  0  0  0  0  0  0  0  0  0
    3.8335    0.1966   -1.4373 H   0  0  0  0  0  0  0  0  0  0  0  0
    1.4807   -0.4817   -1.0485 H   0  0  0  0  0  0  0  0  0  0  0  0
    1.6952   -1.5162    1.6779 H   0  0  0  0  0  0  0  0  0  0  0  0
    1.2106   -2.9512    2.5524 H   0  0  0  0  0  0  0  0  0  0  0  0
    0.6578   -1.0429    3.8745 H   0  0  0  0  0  0  0  0  0  0  0  0
   -0.8577   -2.8349    4.0452 H   0  0  0  0  0  0  0  0  0  0  0  0
   -3.0559   -0.6883    6.8206 H   0  0  0  0  0  0  0  0  0  0  0  0
   -1.4822   -0.2487    7.5140 H   0  0  0  0  0  0  0  0  0  0  0  0
   -2.1795    0.7776    6.2444 H   0  0  0  0  0  0  0  0  0  0  0  0
   -2.2387    0.0330    1.7372 H   0  0  0  0  0  0  0  0  0  0  0  0
   -2.3766    2.2715    0.8099 H   0  0  0  0  0  0  0  0  0  0  0  0
   -0.4315    3.8080    0.8940 H   0  0  0  0  0  0  0  0  0  0  0  0
    1.6885    3.0548    1.9412 H   0  0  0  0  0  0  0  0  0  0  0  0
    1.8683    0.7940    2.8884 H   0  0  0  0  0  0  0  0  0  0  0  0
  1  2  2  0
  2  3  1  0
  3  4  2  0
  4  5  1  0
  5  6  1  0
  5  7  2  0
  7  8  1  0
  8  9  1  0
  9 10  1  0
 10 11  2  0
 10 12  1  0
 12 13  1  0
  9 14  2  0
 14 15  1  0
 14 16  1  0
 16 17  1  0
 17 18  2  0
 18 19  1  0
 19 20  2  0
 20 21  1  0
 21 22  2  0
 16 23  1  0
 23 24  2  0
 23 25  1  0
 25 26  1  0
 26 27  1  0
 27 28  1  0
 28 29  2  0
 27 30  1  0
 30 31  2  0
 30 32  1  0
 32 33  1  0
 26 34  1  0
 34 35  2  0
 35 36  1  0
 36 37  2  0
 37 38  1  0
 38 39  2  0
  7  1  1  0
 24  8  1  0
 22 17  1  0
 28 24  1  0
 39 34  1  0
  1 40  1  0
  2 41  1  0
  3 42  1  0
  4 43  1  0
  8 44  1  0
 13 45  1  0
 13 46  1  0
 13 47  1  0
 15 48  1  0
 15 49  1  0
 18 50  1  0
 19 51  1  0
 20 52  1  0
 21 53  1  0
 22 54  1  0
 25 55  1  0
 25 56  1  0
 26 57  1  0
 27 58  1  0
 33 59  1  0
 33 60  1  0
 33 61  1  0
 35 62  1  0
 36 63  1  0
 37 64  1  0
 38 65  1  0
 39 66  1  0
M  END
>  <mol_id>  (41) 
OSSL_649322

>  <drugclip_rank>  (41) 
41

>  <conformer>  (41) 
28

>  <align_rmsd>  (41) 
1.205

$$$$
OSSM_036080
     RDKit          3D

 59 62  0  0  0  0  0  0  0  0999 V2000
   -1.2937   -6.3094    1.1365 C   0  0  0  0  0  0  0  0  0  0  0  0
   -1.4656   -7.5597    1.7109 C   0  0  0  0  0  0  0  0  0  0  0  0
   -2.6657   -8.0697    2.0564 N   0  0  0  0  0  0  0  0  0  0  0  0
   -3.7408   -7.2855    1.8308 C   0  0  0  0  0  0  0  0  0  0  0  0
   -3.6712   -6.0249    1.2580 C   0  0  0  0  0  0  0  0  0  0  0  0
   -2.4208   -5.5182    0.8933 C   0  0  0  0  0  0  0  0  0  0  0  0
   -2.2854   -4.1488    0.2698 C   0  0  0  0  0  0  0  0  0  0  0  0
   -1.8095   -3.1343    1.2454 N   0  0  0  0  0  0  0  0  0  0  0  0
   -3.0344   -2.2130    1.9956 S   0  0  0  0  0  0  0  0  0  0  0  0
   -4.2209   -3.0258    2.1437 O   0  0  0  0  0  0  0  0  0  0  0  0
   -2.4457   -1.5034    3.1102 O   0  0  0  0  0  0  0  0  0  0  0  0
   -0.6724   -2.2446    0.7925 C   0  0  0  0  0  0  0  0  0  0  0  0
   -1.1124   -1.3438   -0.3982 C   0  0  0  0  0  0  0  0  0  0  0  0
   -1.1612   -2.1123   -1.6085 O   0  0  0  0  0  0  0  0  0  0  0  0
   -2.4432   -0.6348   -0.2211 C   0  0  0  0  0  0  0  0  0  0  0  0
   -3.3838   -0.9742    0.7665 C   0  0  0  0  0  0  0  0  0  0  0  0
   -2.7786    0.4017   -1.1141 C   0  0  0  0  0  0  0  0  0  0  0  0
   -4.0127    1.0518   -1.0343 C   0  0  0  0  0  0  0  0  0  0  0  0
   -4.9378    0.6823   -0.0614 C   0  0  0  0  0  0  0  0  0  0  0  0
   -4.6257   -0.3294    0.8429 C   0  0  0  0  0  0  0  0  0  0  0  0
    0.6021   -3.0715    0.5301 C   0  0  0  0  0  0  0  0  0  0  0  0
    1.8404   -2.2200    0.3627 C   0  0  0  0  0  0  0  0  0  0  0  0
    2.3561   -1.9606   -0.9140 C   0  0  0  0  0  0  0  0  0  0  0  0
    3.4929   -1.1627   -1.0721 C   0  0  0  0  0  0  0  0  0  0  0  0
    2.4775   -1.6668    1.4809 C   0  0  0  0  0  0  0  0  0  0  0  0
    3.6136   -0.8688    1.3242 C   0  0  0  0  0  0  0  0  0  0  0  0
    4.1292   -0.6118    0.0475 C   0  0  0  0  0  0  0  0  0  0  0  0
    5.3426    0.2435   -0.0617 C   0  0  0  0  0  0  0  0  0  0  0  0
    5.9068    0.7376    0.9013 O   0  0  0  0  0  0  0  0  0  0  0  0
    5.7103    0.3833   -1.3596 O   0  0  0  0  0  0  0  0  0  0  0  0
    6.8807    1.1860   -1.6033 C   0  0  0  0  0  0  0  0  0  0  0  0
    6.7705    1.7183   -3.0268 C   0  0  0  0  0  0  0  0  0  0  0  0
    8.1302    0.3271   -1.4435 C   0  0  0  0  0  0  0  0  0  0  0  0
   -0.2965   -5.9657    0.8876 H   0  0  0  0  0  0  0  0  0  0  0  0
   -0.6145   -8.2028    1.9151 H   0  0  0  0  0  0  0  0  0  0  0  0
   -4.6943   -7.7078    2.1345 H   0  0  0  0  0  0  0  0  0  0  0  0
   -4.5801   -5.4485    1.1167 H   0  0  0  0  0  0  0  0  0  0  0  0
   -3.2342   -3.8408   -0.1866 H   0  0  0  0  0  0  0  0  0  0  0  0
   -1.5995   -4.2552   -0.5749 H   0  0  0  0  0  0  0  0  0  0  0  0
   -0.4400   -1.5796    1.6365 H   0  0  0  0  0  0  0  0  0  0  0  0
   -0.3439   -0.5749   -0.5443 H   0  0  0  0  0  0  0  0  0  0  0  0
   -1.8582   -1.7496   -2.1822 H   0  0  0  0  0  0  0  0  0  0  0  0
   -2.0743    0.7130   -1.8852 H   0  0  0  0  0  0  0  0  0  0  0  0
   -4.2529    1.8504   -1.7332 H   0  0  0  0  0  0  0  0  0  0  0  0
   -5.8976    1.1903    0.0001 H   0  0  0  0  0  0  0  0  0  0  0  0
   -5.3441   -0.6035    1.6139 H   0  0  0  0  0  0  0  0  0  0  0  0
    0.4914   -3.7199   -0.3464 H   0  0  0  0  0  0  0  0  0  0  0  0
    0.7740   -3.7542    1.3730 H   0  0  0  0  0  0  0  0  0  0  0  0
    1.8751   -2.3785   -1.7972 H   0  0  0  0  0  0  0  0  0  0  0  0
    3.8712   -0.9818   -2.0753 H   0  0  0  0  0  0  0  0  0  0  0  0
    2.0981   -1.8557    2.4842 H   0  0  0  0  0  0  0  0  0  0  0  0
    4.0972   -0.4500    2.2054 H   0  0  0  0  0  0  0  0  0  0  0  0
    6.9121    2.0394   -0.9147 H   0  0  0  0  0  0  0  0  0  0  0  0
    6.7033    0.8977   -3.7497 H   0  0  0  0  0  0  0  0  0  0  0  0
    7.6295    2.3450   -3.2853 H   0  0  0  0  0  0  0  0  0  0  0  0
    5.8578    2.3129   -3.1411 H   0  0  0  0  0  0  0  0  0  0  0  0
    9.0353    0.8975   -1.6742 H   0  0  0  0  0  0  0  0  0  0  0  0
    8.0895   -0.5489   -2.1004 H   0  0  0  0  0  0  0  0  0  0  0  0
    8.2143   -0.0527   -0.4202 H   0  0  0  0  0  0  0  0  0  0  0  0
  1  2  2  0
  2  3  1  0
  3  4  2  0
  4  5  1  0
  5  6  2  0
  6  7  1  0
  7  8  1  0
  8  9  1  0
  9 10  2  0
  9 11  2  0
  8 12  1  0
 12 13  1  0
 13 14  1  0
 13 15  1  0
 15 16  2  0
 15 17  1  0
 17 18  2  0
 18 19  1  0
 19 20  2  0
 12 21  1  0
 21 22  1  0
 22 23  2  0
 23 24  1  0
 22 25  1  0
 25 26  2  0
 26 27  1  0
 27 28  1  0
 28 29  2  0
 28 30  1  0
 30 31  1  0
 31 32  1  0
 31 33  1  0
  6  1  1  0
 16  9  1  0
 20 16  1  0
 27 24  2  0
  1 34  1  0
  2 35  1  0
  4 36  1  0
  5 37  1  0
  7 38  1  0
  7 39  1  0
 12 40  1  0
 13 41  1  0
 14 42  1  0
 17 43  1  0
 18 44  1  0
 19 45  1  0
 20 46  1  0
 21 47  1  0
 21 48  1  0
 23 49  1  0
 24 50  1  0
 25 51  1  0
 26 52  1  0
 31 53  1  0
 32 54  1  0
 32 55  1  0
 32 56  1  0
 33 57  1  0
 33 58  1  0
 33 59  1  0
M  END
>  <mol_id>  (42) 
OSSM_036080

>  <drugclip_rank>  (42) 
42

>  <conformer>  (42) 
13

>  <align_rmsd>  (42) 
0.88

$$$$
G747-0365
     RDKit          3D

 65 68  0  0  0  0  0  0  0  0999 V2000
    8.4790    0.5586   -2.2947 C   0  0  0  0  0  0  0  0  0  0  0  0
    7.5395   -0.5104   -1.7671 C   0  0  0  0  0  0  0  0  0  0  0  0
    6.2372   -0.3641   -2.3524 O   0  0  0  0  0  0  0  0  0  0  0  0
    5.3968    0.5113   -1.7256 C   0  0  0  0  0  0  0  0  0  0  0  0
    5.6861    1.1782   -0.7434 O   0  0  0  0  0  0  0  0  0  0  0  0
    4.0569    0.5338   -2.4433 C   0  0  0  0  0  0  0  0  0  0  0  0
    3.2044    1.7335   -2.0292 C   0  0  0  0  0  0  0  0  0  0  0  0
    2.5612    1.5597   -0.6486 C   0  0  0  0  0  0  0  0  0  0  0  0
    3.2977   -0.7713   -2.2076 C   0  0  0  0  0  0  0  0  0  0  0  0
    2.6928   -0.8364   -0.8037 C   0  0  0  0  0  0  0  0  0  0  0  0
    1.7861    0.3038   -0.5713 N   0  0  0  0  0  0  0  0  0  0  0  0
    1.1049    0.1758    0.7665 C   0  0  0  0  0  0  0  0  0  0  0  0
    0.1631    1.3555    1.0757 C   0  0  0  0  0  0  0  0  0  0  0  0
   -0.7660    1.8210    0.1291 C   0  0  0  0  0  0  0  0  0  0  0  0
   -1.6282    2.8752    0.4351 C   0  0  0  0  0  0  0  0  0  0  0  0
   -1.5812    3.4731    1.6926 C   0  0  0  0  0  0  0  0  0  0  0  0
   -0.6745    3.0165    2.6477 C   0  0  0  0  0  0  0  0  0  0  0  0
    0.1906    1.9633    2.3434 C   0  0  0  0  0  0  0  0  0  0  0  0
    0.3298   -1.1218    1.0055 C   0  0  0  0  0  0  0  0  0  0  0  0
    0.5269   -1.7398    2.3625 C   0  0  0  0  0  0  0  0  0  0  0  0
    1.2465   -1.1821    3.1897 O   0  0  0  0  0  0  0  0  0  0  0  0
   -0.1481   -2.9393    2.6285 N   0  0  0  0  0  0  0  0  0  0  0  0
   -0.9884   -3.5470    1.6943 C   0  0  0  0  0  0  0  0  0  0  0  0
   -1.7005   -4.8283    2.0309 C   0  0  0  0  0  0  0  0  0  0  0  0
   -1.1594   -2.9767    0.4912 C   0  0  0  0  0  0  0  0  0  0  0  0
   -0.4858   -1.7535    0.1432 C   0  0  0  0  0  0  0  0  0  0  0  0
   -0.7344   -1.2721   -1.1252 O   0  0  0  0  0  0  0  0  0  0  0  0
    0.1310   -3.5682    3.9266 C   0  0  0  0  0  0  0  0  0  0  0  0
    1.1366   -4.7076    3.8653 C   0  0  0  0  0  0  0  0  0  0  0  0
    2.1843   -4.6073    3.0046 N   0  0  0  0  0  0  0  0  0  0  0  0
    3.0953   -5.6058    3.0048 C   0  0  0  0  0  0  0  0  0  0  0  0
    3.0181   -6.7207    3.8239 C   0  0  0  0  0  0  0  0  0  0  0  0
    1.9421   -6.8165    4.7001 C   0  0  0  0  0  0  0  0  0  0  0  0
    0.9894   -5.7996    4.7260 C   0  0  0  0  0  0  0  0  0  0  0  0
    9.4967    0.3851   -1.9359 H   0  0  0  0  0  0  0  0  0  0  0  0
    8.4829    0.5623   -3.3896 H   0  0  0  0  0  0  0  0  0  0  0  0
    8.1618    1.5569   -1.9695 H   0  0  0  0  0  0  0  0  0  0  0  0
    7.4811   -0.4952   -0.6730 H   0  0  0  0  0  0  0  0  0  0  0  0
    7.9075   -1.5011   -2.0534 H   0  0  0  0  0  0  0  0  0  0  0  0
    4.2836    0.6415   -3.5124 H   0  0  0  0  0  0  0  0  0  0  0  0
    2.4064    1.8706   -2.7718 H   0  0  0  0  0  0  0  0  0  0  0  0
    3.8009    2.6541   -2.0401 H   0  0  0  0  0  0  0  0  0  0  0  0
    3.3248    1.5950    0.1383 H   0  0  0  0  0  0  0  0  0  0  0  0
    1.9169    2.4319   -0.4968 H   0  0  0  0  0  0  0  0  0  0  0  0
    3.9502   -1.6402   -2.3568 H   0  0  0  0  0  0  0  0  0  0  0  0
    2.4916   -0.8540   -2.9489 H   0  0  0  0  0  0  0  0  0  0  0  0
    3.4877   -0.8695   -0.0471 H   0  0  0  0  0  0  0  0  0  0  0  0
    2.1575   -1.7893   -0.7424 H   0  0  0  0  0  0  0  0  0  0  0  0
    1.9285    0.2306    1.4917 H   0  0  0  0  0  0  0  0  0  0  0  0
   -0.8087    1.3606   -0.8567 H   0  0  0  0  0  0  0  0  0  0  0  0
   -2.3355    3.2293   -0.3107 H   0  0  0  0  0  0  0  0  0  0  0  0
   -2.2512    4.2939    1.9301 H   0  0  0  0  0  0  0  0  0  0  0  0
   -0.6412    3.4798    3.6304 H   0  0  0  0  0  0  0  0  0  0  0  0
    0.8850    1.6103    3.1055 H   0  0  0  0  0  0  0  0  0  0  0  0
   -2.3766   -4.6866    2.8827 H   0  0  0  0  0  0  0  0  0  0  0  0
   -0.9904   -5.6269    2.2617 H   0  0  0  0  0  0  0  0  0  0  0  0
   -2.3138   -5.1833    1.1935 H   0  0  0  0  0  0  0  0  0  0  0  0
   -1.8134   -3.4361   -0.2404 H   0  0  0  0  0  0  0  0  0  0  0  0
   -1.2869   -1.9005   -1.6137 H   0  0  0  0  0  0  0  0  0  0  0  0
    0.5283   -2.8335    4.6348 H   0  0  0  0  0  0  0  0  0  0  0  0
   -0.8180   -3.9089    4.3552 H   0  0  0  0  0  0  0  0  0  0  0  0
    3.9185   -5.4761    2.3048 H   0  0  0  0  0  0  0  0  0  0  0  0
    3.7828   -7.4896    3.7862 H   0  0  0  0  0  0  0  0  0  0  0  0
    1.8502   -7.6667    5.3688 H   0  0  0  0  0  0  0  0  0  0  0  0
    0.1455   -5.8612    5.4102 H   0  0  0  0  0  0  0  0  0  0  0  0
  1  2  1  0
  2  3  1  0
  3  4  1  0
  4  5  2  0
  4  6  1  0
  6  7  1  0
  7  8  1  0
  6  9  1  0
  9 10  1  0
 10 11  1  0
 11 12  1  0
 12 13  1  0
 13 14  2  0
 14 15  1  0
 15 16  2  0
 16 17  1  0
 17 18  2  0
 12 19  1  0
 19 20  1  0
 20 21  2  0
 20 22  1  0
 22 23  1  0
 23 24  1  0
 23 25  2  0
 25 26  1  0
 26 27  1  0
 22 28  1  0
 28 29  1  0
 29 30  2  0
 30 31  1  0
 31 32  2  0
 32 33  1  0
 33 34  2  0
 11  8  1  0
 18 13  1  0
 26 19  2  0
 34 29  1  0
  1 35  1  0
  1 36  1  0
  1 37  1  0
  2 38  1  0
  2 39  1  0
  6 40  1  0
  7 41  1  0
  7 42  1  0
  8 43  1  0
  8 44  1  0
  9 45  1  0
  9 46  1  0
 10 47  1  0
 10 48  1  0
 12 49  1  0
 14 50  1  0
 15 51  1  0
 16 52  1  0
 17 53  1  0
 18 54  1  0
 24 55  1  0
 24 56  1  0
 24 57  1  0
 25 58  1  0
 27 59  1  0
 28 60  1  0
 28 61  1  0
 31 62  1  0
 32 63  1  0
 33 64  1  0
 34 65  1  0
M  END
>  <mol_id>  (43) 
G747-0365

>  <drugclip_rank>  (43) 
43

>  <conformer>  (43) 
16

>  <align_rmsd>  (43) 
0.723

$$$$
G747-0051
     RDKit          3D

 67 70  0  0  0  0  0  0  0  0999 V2000
   -7.7759   -2.5037    5.5984 O   0  0  0  0  0  0  0  0  0  0  0  0
   -7.4485   -1.1539    5.2759 C   0  0  0  0  0  0  0  0  0  0  0  0
   -6.5830   -1.1231    4.0070 C   0  0  0  0  0  0  0  0  0  0  0  0
   -6.2794    0.2383    3.5259 N   0  0  0  0  0  0  0  0  0  0  0  0
   -5.3832    0.9788    4.4313 C   0  0  0  0  0  0  0  0  0  0  0  0
   -3.9258    0.4491    4.5014 C   0  0  0  0  0  0  0  0  0  0  0  0
   -5.6789    0.2046    2.1704 C   0  0  0  0  0  0  0  0  0  0  0  0
   -4.1313    0.3483    2.0958 C   0  0  0  0  0  0  0  0  0  0  0  0
   -3.4631   -0.2376    3.2745 N   0  0  0  0  0  0  0  0  0  0  0  0
   -1.9669   -0.3261    3.2163 C   0  0  0  0  0  0  0  0  0  0  0  0
   -1.3114    0.8353    2.4476 C   0  0  0  0  0  0  0  0  0  0  0  0
   -1.1054    0.7828    1.0571 C   0  0  0  0  0  0  0  0  0  0  0  0
   -0.4995    1.8454    0.3805 C   0  0  0  0  0  0  0  0  0  0  0  0
   -0.0942    2.9881    1.0730 C   0  0  0  0  0  0  0  0  0  0  0  0
    0.6938    4.3070    0.1662 S   0  0  0  0  0  0  0  0  0  0  0  0
   -0.2923    5.7210    0.7260 C   0  0  0  0  0  0  0  0  0  0  0  0
   -0.2805    3.0450    2.4560 C   0  0  0  0  0  0  0  0  0  0  0  0
   -0.8869    1.9830    3.1358 C   0  0  0  0  0  0  0  0  0  0  0  0
   -1.4590   -1.6948    2.7704 C   0  0  0  0  0  0  0  0  0  0  0  0
    0.0256   -1.9030    2.9097 C   0  0  0  0  0  0  0  0  0  0  0  0
    0.6966   -1.0782    3.5315 O   0  0  0  0  0  0  0  0  0  0  0  0
    0.5797   -3.0439    2.3140 N   0  0  0  0  0  0  0  0  0  0  0  0
   -0.2208   -4.0588    1.7812 C   0  0  0  0  0  0  0  0  0  0  0  0
    0.3958   -5.3004    1.1997 C   0  0  0  0  0  0  0  0  0  0  0  0
   -1.5560   -3.9277    1.8140 C   0  0  0  0  0  0  0  0  0  0  0  0
   -2.1753   -2.7363    2.3153 C   0  0  0  0  0  0  0  0  0  0  0  0
   -3.5470   -2.7671    2.2514 O   0  0  0  0  0  0  0  0  0  0  0  0
    2.0460   -3.1291    2.2995 C   0  0  0  0  0  0  0  0  0  0  0  0
    2.6605   -2.6245    1.0087 C   0  0  0  0  0  0  0  0  0  0  0  0
    3.4196   -3.4800    0.1965 C   0  0  0  0  0  0  0  0  0  0  0  0
    3.9935   -3.0130   -0.9881 C   0  0  0  0  0  0  0  0  0  0  0  0
    3.8233   -1.6841   -1.3707 C   0  0  0  0  0  0  0  0  0  0  0  0
    3.0841   -0.8193   -0.5674 C   0  0  0  0  0  0  0  0  0  0  0  0
    2.5100   -1.2849    0.6167 C   0  0  0  0  0  0  0  0  0  0  0  0
   -8.3789   -2.4723    6.3607 H   0  0  0  0  0  0  0  0  0  0  0  0
   -6.9212   -0.7279    6.1339 H   0  0  0  0  0  0  0  0  0  0  0  0
   -8.3812   -0.6017    5.1192 H   0  0  0  0  0  0  0  0  0  0  0  0
   -7.1494   -1.6612    3.2346 H   0  0  0  0  0  0  0  0  0  0  0  0
   -5.6775   -1.7192    4.1708 H   0  0  0  0  0  0  0  0  0  0  0  0
   -5.8009    1.0479    5.4415 H   0  0  0  0  0  0  0  0  0  0  0  0
   -5.3506    2.0179    4.0744 H   0  0  0  0  0  0  0  0  0  0  0  0
   -3.2841    1.3027    4.7494 H   0  0  0  0  0  0  0  0  0  0  0  0
   -3.8518   -0.2667    5.3291 H   0  0  0  0  0  0  0  0  0  0  0  0
   -5.9792   -0.7061    1.6366 H   0  0  0  0  0  0  0  0  0  0  0  0
   -6.1154    1.0324    1.5974 H   0  0  0  0  0  0  0  0  0  0  0  0
   -3.8917    1.4161    2.0083 H   0  0  0  0  0  0  0  0  0  0  0  0
   -3.8014   -0.1453    1.1748 H   0  0  0  0  0  0  0  0  0  0  0  0
   -1.6125   -0.2562    4.2566 H   0  0  0  0  0  0  0  0  0  0  0  0
   -1.4057   -0.0927    0.4840 H   0  0  0  0  0  0  0  0  0  0  0  0
   -0.3452    1.7682   -0.6935 H   0  0  0  0  0  0  0  0  0  0  0  0
   -0.0998    5.9388    1.7799 H   0  0  0  0  0  0  0  0  0  0  0  0
   -0.0157    6.6013    0.1393 H   0  0  0  0  0  0  0  0  0  0  0  0
   -1.3594    5.5292    0.5807 H   0  0  0  0  0  0  0  0  0  0  0  0
    0.0646    3.9021    3.0277 H   0  0  0  0  0  0  0  0  0  0  0  0
   -0.9992    2.0482    4.2156 H   0  0  0  0  0  0  0  0  0  0  0  0
   -0.3662   -6.0152    0.8676 H   0  0  0  0  0  0  0  0  0  0  0  0
    1.0112   -5.8199    1.9407 H   0  0  0  0  0  0  0  0  0  0  0  0
    1.0055   -5.0610    0.3247 H   0  0  0  0  0  0  0  0  0  0  0  0
   -2.2124   -4.7002    1.4237 H   0  0  0  0  0  0  0  0  0  0  0  0
   -3.8569   -1.9737    2.7399 H   0  0  0  0  0  0  0  0  0  0  0  0
    2.4706   -2.5417    3.1232 H   0  0  0  0  0  0  0  0  0  0  0  0
    2.3545   -4.1597    2.5063 H   0  0  0  0  0  0  0  0  0  0  0  0
    3.5700   -4.5190    0.4795 H   0  0  0  0  0  0  0  0  0  0  0  0
    4.5766   -3.6860   -1.6113 H   0  0  0  0  0  0  0  0  0  0  0  0
    4.2717   -1.3199   -2.2911 H   0  0  0  0  0  0  0  0  0  0  0  0
    2.9568    0.2211   -0.8560 H   0  0  0  0  0  0  0  0  0  0  0  0
    1.9503   -0.5873    1.2371 H   0  0  0  0  0  0  0  0  0  0  0  0
  1  2  1  0
  2  3  1  0
  3  4  1  0
  4  5  1  0
  5  6  1  0
  4  7  1  0
  7  8  1  0
  8  9  1  0
  9 10  1  0
 10 11  1  0
 11 12  2  0
 12 13  1  0
 13 14  2  0
 14 15  1  0
 15 16  1  0
 14 17  1  0
 17 18  2  0
 10 19  1  0
 19 20  1  0
 20 21  2  0
 20 22  1  0
 22 23  1  0
 23 24  1  0
 23 25  2  0
 25 26  1  0
 26 27  1  0
 22 28  1  0
 28 29  1  0
 29 30  2  0
 30 31  1  0
 31 32  2  0
 32 33  1  0
 33 34  2  0
  9  6  1  0
 18 11  1  0
 26 19  2  0
 34 29  1  0
  1 35  1  0
  2 36  1  0
  2 37  1  0
  3 38  1  0
  3 39  1  0
  5 40  1  0
  5 41  1  0
  6 42  1  0
  6 43  1  0
  7 44  1  0
  7 45  1  0
  8 46  1  0
  8 47  1  0
 10 48  1  0
 12 49  1  0
 13 50  1  0
 16 51  1  0
 16 52  1  0
 16 53  1  0
 17 54  1  0
 18 55  1  0
 24 56  1  0
 24 57  1  0
 24 58  1  0
 25 59  1  0
 27 60  1  0
 28 61  1  0
 28 62  1  0
 30 63  1  0
 31 64  1  0
 32 65  1  0
 33 66  1  0
 34 67  1  0
M  END
>  <mol_id>  (44) 
G747-0051

>  <drugclip_rank>  (44) 
44

>  <conformer>  (44) 
14

>  <align_rmsd>  (44) 
0.943

$$$$
Z56754860
     RDKit          3D

 53 56  0  0  0  0  0  0  0  0999 V2000
   -4.3682    1.6051    2.5385 C   0  0  0  0  0  0  0  0  0  0  0  0
   -5.1971    2.6485    2.1296 C   0  0  0  0  0  0  0  0  0  0  0  0
   -6.4359    2.3692    1.5484 C   0  0  0  0  0  0  0  0  0  0  0  0
   -6.8530    1.0479    1.3765 C   0  0  0  0  0  0  0  0  0  0  0  0
   -6.0309   -0.0023    1.7810 C   0  0  0  0  0  0  0  0  0  0  0  0
   -4.7909    0.2840    2.3574 C   0  0  0  0  0  0  0  0  0  0  0  0
   -3.7048   -1.0399    2.8502 S   0  0  0  0  0  0  0  0  0  0  0  0
   -3.5437   -0.8815    4.2836 O   0  0  0  0  0  0  0  0  0  0  0  0
   -4.2441   -2.2807    2.3302 O   0  0  0  0  0  0  0  0  0  0  0  0
   -2.2931   -0.7158    2.1455 N   0  0  0  0  0  0  0  0  0  0  0  0
   -2.0832   -0.6545    0.8713 C   0  0  0  0  0  0  0  0  0  0  0  0
   -3.0760   -0.8856   -0.2048 C   0  0  0  0  0  0  0  0  0  0  0  0
   -3.5724    0.2095   -0.9220 C   0  0  0  0  0  0  0  0  0  0  0  0
   -4.5099    0.0038   -1.9334 C   0  0  0  0  0  0  0  0  0  0  0  0
   -4.9494   -1.2881   -2.2246 C   0  0  0  0  0  0  0  0  0  0  0  0
   -4.4514   -2.3775   -1.5100 C   0  0  0  0  0  0  0  0  0  0  0  0
   -3.5100   -2.1795   -0.5004 C   0  0  0  0  0  0  0  0  0  0  0  0
   -0.7746   -0.2599    0.4222 N   0  0  0  0  0  0  0  0  0  0  0  0
   -0.1450    0.7342    1.2564 C   0  0  0  0  0  0  0  0  0  0  0  0
   -0.4028    2.0960    1.0703 C   0  0  0  0  0  0  0  0  0  0  0  0
    0.1996    3.0392    1.9035 C   0  0  0  0  0  0  0  0  0  0  0  0
    1.0502    2.6235    2.9276 C   0  0  0  0  0  0  0  0  0  0  0  0
    1.2980    1.2649    3.1232 C   0  0  0  0  0  0  0  0  0  0  0  0
    0.6972    0.3196    2.2921 C   0  0  0  0  0  0  0  0  0  0  0  0
   -0.1790   -0.3753   -1.1664 S   0  0  0  0  0  0  0  0  0  0  0  0
   -0.3682    0.9005   -1.8304 O   0  0  0  0  0  0  0  0  0  0  0  0
   -0.6613   -1.5994   -1.7732 O   0  0  0  0  0  0  0  0  0  0  0  0
    1.5705   -0.6091   -0.9150 C   0  0  0  0  0  0  0  0  0  0  0  0
    2.0379   -1.8749   -0.5468 C   0  0  0  0  0  0  0  0  0  0  0  0
    3.4031   -2.0675   -0.3399 C   0  0  0  0  0  0  0  0  0  0  0  0
    4.2910   -1.0036   -0.5094 C   0  0  0  0  0  0  0  0  0  0  0  0
    3.8208    0.2530   -0.8944 C   0  0  0  0  0  0  0  0  0  0  0  0
    2.4570    0.4548   -1.1058 C   0  0  0  0  0  0  0  0  0  0  0  0
   -3.4074    1.8213    3.0015 H   0  0  0  0  0  0  0  0  0  0  0  0
   -4.8836    3.6802    2.2684 H   0  0  0  0  0  0  0  0  0  0  0  0
   -7.0840    3.1852    1.2349 H   0  0  0  0  0  0  0  0  0  0  0  0
   -7.8207    0.8374    0.9272 H   0  0  0  0  0  0  0  0  0  0  0  0
   -6.3587   -1.0291    1.6408 H   0  0  0  0  0  0  0  0  0  0  0  0
   -3.2369    1.2194   -0.7038 H   0  0  0  0  0  0  0  0  0  0  0  0
   -4.8941    0.8486   -2.4995 H   0  0  0  0  0  0  0  0  0  0  0  0
   -5.6764   -1.4483   -3.0164 H   0  0  0  0  0  0  0  0  0  0  0  0
   -4.7909   -3.3842   -1.7437 H   0  0  0  0  0  0  0  0  0  0  0  0
   -3.1195   -3.0355    0.0448 H   0  0  0  0  0  0  0  0  0  0  0  0
   -1.0632    2.4334    0.2761 H   0  0  0  0  0  0  0  0  0  0  0  0
    0.0060    4.0979    1.7560 H   0  0  0  0  0  0  0  0  0  0  0  0
    1.5167    3.3584    3.5787 H   0  0  0  0  0  0  0  0  0  0  0  0
    1.9535    0.9408    3.9285 H   0  0  0  0  0  0  0  0  0  0  0  0
    0.8817   -0.7375    2.4601 H   0  0  0  0  0  0  0  0  0  0  0  0
    1.3491   -2.7069   -0.4194 H   0  0  0  0  0  0  0  0  0  0  0  0
    3.7773   -3.0465   -0.0490 H   0  0  0  0  0  0  0  0  0  0  0  0
    5.3564   -1.1566   -0.3451 H   0  0  0  0  0  0  0  0  0  0  0  0
    4.5195    1.0750   -1.0296 H   0  0  0  0  0  0  0  0  0  0  0  0
    2.0971    1.4359   -1.4050 H   0  0  0  0  0  0  0  0  0  0  0  0
  1  2  2  0
  2  3  1  0
  3  4  2  0
  4  5  1  0
  5  6  2  0
  6  7  1  0
  7  8  2  0
  7  9  2  0
  7 10  1  0
 10 11  2  0
 11 12  1  0
 12 13  2  0
 13 14  1  0
 14 15  2  0
 15 16  1  0
 16 17  2  0
 11 18  1  0
 18 19  1  0
 19 20  2  0
 20 21  1  0
 21 22  2  0
 22 23  1  0
 23 24  2  0
 18 25  1  0
 25 26  2  0
 25 27  2  0
 25 28  1  0
 28 29  2  0
 29 30  1  0
 30 31  2  0
 31 32  1  0
 32 33  2  0
  6  1  1  0
 17 12  1  0
 24 19  1  0
 33 28  1  0
  1 34  1  0
  2 35  1  0
  3 36  1  0
  4 37  1  0
  5 38  1  0
 13 39  1  0
 14 40  1  0
 15 41  1  0
 16 42  1  0
 17 43  1  0
 20 44  1  0
 21 45  1  0
 22 46  1  0
 23 47  1  0
 24 48  1  0
 29 49  1  0
 30 50  1  0
 31 51  1  0
 32 52  1  0
 33 53  1  0
M  END
>  <mol_id>  (45) 
Z56754860

>  <drugclip_rank>  (45) 
45

>  <conformer>  (45) 
16

>  <align_rmsd>  (45) 
1.02

$$$$
STK683430
     RDKit          3D

 66 70  0  0  0  0  0  0  0  0999 V2000
    3.0187   -2.6933    1.3079 C   0  0  0  0  0  0  0  0  0  0  0  0
    4.2529   -2.4126    0.7175 C   0  0  0  0  0  0  0  0  0  0  0  0
    4.3116   -1.7004   -0.4779 C   0  0  0  0  0  0  0  0  0  0  0  0
    3.1366   -1.2589   -1.0792 C   0  0  0  0  0  0  0  0  0  0  0  0
    1.9092   -1.5407   -0.4865 C   0  0  0  0  0  0  0  0  0  0  0  0
    0.7987   -1.1045   -1.0981 F   0  0  0  0  0  0  0  0  0  0  0  0
    1.8219   -2.2653    0.7092 C   0  0  0  0  0  0  0  0  0  0  0  0
    0.4768   -2.6279    1.3417 C   0  0  0  0  0  0  0  0  0  0  0  0
   -0.3253   -3.5254    0.4225 C   0  0  0  0  0  0  0  0  0  0  0  0
    0.2463   -4.8593    0.1189 C   0  0  0  0  0  0  0  0  0  0  0  0
    0.1728   -5.4018   -0.9752 O   0  0  0  0  0  0  0  0  0  0  0  0
    0.8201   -5.3873    1.2290 O   0  0  0  0  0  0  0  0  0  0  0  0
    1.3392   -6.7082    1.0691 C   0  0  0  0  0  0  0  0  0  0  0  0
   -1.5047   -3.1455   -0.1328 C   0  0  0  0  0  0  0  0  0  0  0  0
   -2.1804   -3.9941   -1.0087 N   0  0  0  0  0  0  0  0  0  0  0  0
   -2.0433   -1.8677    0.1965 N   0  0  0  0  0  0  0  0  0  0  0  0
   -3.2949   -1.4922   -0.3873 C   0  0  0  0  0  0  0  0  0  0  0  0
   -4.5018   -1.9729    0.1404 C   0  0  0  0  0  0  0  0  0  0  0  0
   -5.7024   -1.6183   -0.4617 C   0  0  0  0  0  0  0  0  0  0  0  0
   -6.8558   -2.0804    0.0413 F   0  0  0  0  0  0  0  0  0  0  0  0
   -5.7299   -0.7977   -1.5845 C   0  0  0  0  0  0  0  0  0  0  0  0
   -4.5348   -0.3188   -2.1198 C   0  0  0  0  0  0  0  0  0  0  0  0
   -3.3199   -0.6661   -1.5243 C   0  0  0  0  0  0  0  0  0  0  0  0
   -1.4727   -1.0569    1.2130 C   0  0  0  0  0  0  0  0  0  0  0  0
   -0.3008   -1.4040    1.7866 C   0  0  0  0  0  0  0  0  0  0  0  0
   -2.2266    0.1874    1.6616 C   0  0  0  0  0  0  0  0  0  0  0  0
   -1.4432    1.1879    2.5322 C   0  0  0  0  0  0  0  0  0  0  0  0
   -0.5175    0.5025    3.5377 C   0  0  0  0  0  0  0  0  0  0  0  0
    0.2347   -0.6714    2.9704 C   0  0  0  0  0  0  0  0  0  0  0  0
    1.2494   -1.0846    3.5392 O   0  0  0  0  0  0  0  0  0  0  0  0
   -1.3178    0.0620    4.7367 C   0  0  0  0  0  0  0  0  0  0  0  0
   -2.1601   -0.8268    4.7193 O   0  0  0  0  0  0  0  0  0  0  0  0
   -1.0124    0.8230    5.8244 O   0  0  0  0  0  0  0  0  0  0  0  0
   -1.7114    0.4539    7.0142 C   0  0  0  0  0  0  0  0  0  0  0  0
   -0.7044    2.2681    1.7443 C   0  0  0  0  0  0  0  0  0  0  0  0
   -0.7467    3.5933    2.2149 C   0  0  0  0  0  0  0  0  0  0  0  0
   -0.0872    4.6202    1.5353 C   0  0  0  0  0  0  0  0  0  0  0  0
    0.6336    4.3378    0.3789 C   0  0  0  0  0  0  0  0  0  0  0  0
    0.7001    3.0276   -0.0918 C   0  0  0  0  0  0  0  0  0  0  0  0
    0.0358    2.0003    0.5842 C   0  0  0  0  0  0  0  0  0  0  0  0
    2.9980   -3.2448    2.2470 H   0  0  0  0  0  0  0  0  0  0  0  0
    5.1697   -2.7509    1.1955 H   0  0  0  0  0  0  0  0  0  0  0  0
    5.2729   -1.4859   -0.9364 H   0  0  0  0  0  0  0  0  0  0  0  0
    3.1684   -0.7023   -2.0097 H   0  0  0  0  0  0  0  0  0  0  0  0
    0.6633   -3.2055    2.2586 H   0  0  0  0  0  0  0  0  0  0  0  0
    1.3407   -7.1876    2.0508 H   0  0  0  0  0  0  0  0  0  0  0  0
    0.7258   -7.3157    0.3990 H   0  0  0  0  0  0  0  0  0  0  0  0
    2.3654   -6.6541    0.6971 H   0  0  0  0  0  0  0  0  0  0  0  0
   -2.7047   -3.4813   -1.7108 H   0  0  0  0  0  0  0  0  0  0  0  0
   -1.5728   -4.6974   -1.4378 H   0  0  0  0  0  0  0  0  0  0  0  0
   -4.5040   -2.6242    1.0084 H   0  0  0  0  0  0  0  0  0  0  0  0
   -6.6838   -0.5417   -2.0354 H   0  0  0  0  0  0  0  0  0  0  0  0
   -4.5473    0.3195   -2.9983 H   0  0  0  0  0  0  0  0  0  0  0  0
   -2.3842   -0.3012   -1.9447 H   0  0  0  0  0  0  0  0  0  0  0  0
   -2.6155    0.7358    0.7967 H   0  0  0  0  0  0  0  0  0  0  0  0
   -3.1018   -0.1517    2.2317 H   0  0  0  0  0  0  0  0  0  0  0  0
   -2.2198    1.7290    3.0952 H   0  0  0  0  0  0  0  0  0  0  0  0
    0.2465    1.2171    3.8790 H   0  0  0  0  0  0  0  0  0  0  0  0
   -1.5851   -0.6135    7.2286 H   0  0  0  0  0  0  0  0  0  0  0  0
   -1.2860    1.0218    7.8470 H   0  0  0  0  0  0  0  0  0  0  0  0
   -2.7715    0.7074    6.9202 H   0  0  0  0  0  0  0  0  0  0  0  0
   -1.3012    3.8426    3.1186 H   0  0  0  0  0  0  0  0  0  0  0  0
   -0.1393    5.6400    1.9110 H   0  0  0  0  0  0  0  0  0  0  0  0
    1.1454    5.1359   -0.1539 H   0  0  0  0  0  0  0  0  0  0  0  0
    1.2659    2.8039   -0.9937 H   0  0  0  0  0  0  0  0  0  0  0  0
    0.1115    0.9963    0.1768 H   0  0  0  0  0  0  0  0  0  0  0  0
  1  2  2  0
  2  3  1  0
  3  4  2  0
  4  5  1  0
  5  6  1  0
  5  7  2  0
  7  8  1  0
  8  9  1  0
  9 10  1  0
 10 11  2  0
 10 12  1  0
 12 13  1  0
  9 14  2  0
 14 15  1  0
 14 16  1  0
 16 17  1  0
 17 18  2  0
 18 19  1  0
 19 20  1  0
 19 21  2  0
 21 22  1  0
 22 23  2  0
 16 24  1  0
 24 25  2  0
 24 26  1  0
 26 27  1  0
 27 28  1  0
 28 29  1  0
 29 30  2  0
 28 31  1  0
 31 32  2  0
 31 33  1  0
 33 34  1  0
 27 35  1  0
 35 36  2  0
 36 37  1  0
 37 38  2  0
 38 39  1  0
 39 40  2  0
  7  1  1  0
 25  8  1  0
 23 17  1  0
 29 25  1  0
 40 35  1  0
  1 41  1  0
  2 42  1  0
  3 43  1  0
  4 44  1  0
  8 45  1  0
 13 46  1  0
 13 47  1  0
 13 48  1  0
 15 49  1  0
 15 50  1  0
 18 51  1  0
 21 52  1  0
 22 53  1  0
 23 54  1  0
 26 55  1  0
 26 56  1  0
 27 57  1  0
 28 58  1  0
 34 59  1  0
 34 60  1  0
 34 61  1  0
 36 62  1  0
 37 63  1  0
 38 64  1  0
 39 65  1  0
 40 66  1  0
M  END
>  <mol_id>  (46) 
STK683430

>  <drugclip_rank>  (46) 
46

>  <conformer>  (46) 
2

>  <align_rmsd>  (46) 
0.761

$$$$
OSSL_628246
     RDKit          3D

 60 62  0  0  0  0  0  0  0  0999 V2000
   -4.4753   -0.1971    0.5968 C   0  0  0  0  0  0  0  0  0  0  0  0
   -5.6694   -0.0152   -0.0930 C   0  0  0  0  0  0  0  0  0  0  0  0
   -5.9905   -0.8458   -1.1641 C   0  0  0  0  0  0  0  0  0  0  0  0
   -5.1196   -1.8613   -1.5424 C   0  0  0  0  0  0  0  0  0  0  0  0
   -3.9215   -2.0451   -0.8574 C   0  0  0  0  0  0  0  0  0  0  0  0
   -3.5831   -1.2110    0.2211 C   0  0  0  0  0  0  0  0  0  0  0  0
   -2.2760   -1.3935    0.9977 C   0  0  0  0  0  0  0  0  0  0  0  0
   -2.3595   -2.7063    1.8055 C   0  0  0  0  0  0  0  0  0  0  0  0
   -0.9780   -3.1465    2.3087 C   0  0  0  0  0  0  0  0  0  0  0  0
   -0.3749   -2.1267    3.1190 O   0  0  0  0  0  0  0  0  0  0  0  0
   -1.0267   -4.4310    3.1455 C   0  0  0  0  0  0  0  0  0  0  0  0
   -3.3086   -2.5033    2.9661 C   0  0  0  0  0  0  0  0  0  0  0  0
   -3.0046   -1.9232    4.0024 O   0  0  0  0  0  0  0  0  0  0  0  0
   -4.5158   -3.0675    2.7041 O   0  0  0  0  0  0  0  0  0  0  0  0
   -5.4920   -2.8903    3.7388 C   0  0  0  0  0  0  0  0  0  0  0  0
   -6.8111   -3.4508    3.2615 C   0  0  0  0  0  0  0  0  0  0  0  0
   -1.0605   -1.3185    0.0827 C   0  0  0  0  0  0  0  0  0  0  0  0
   -0.9967   -0.0740   -0.7366 C   0  0  0  0  0  0  0  0  0  0  0  0
   -1.3515    1.0200   -0.3183 O   0  0  0  0  0  0  0  0  0  0  0  0
   -0.5195   -0.3276   -1.9865 O   0  0  0  0  0  0  0  0  0  0  0  0
   -0.4363    0.8363   -2.8169 C   0  0  0  0  0  0  0  0  0  0  0  0
    0.0434    0.4054   -4.1909 C   0  0  0  0  0  0  0  0  0  0  0  0
   -0.0611   -2.2332    0.0720 C   0  0  0  0  0  0  0  0  0  0  0  0
   -0.0634   -3.3777    1.0850 C   0  0  0  0  0  0  0  0  0  0  0  0
    0.9963   -2.2649   -0.8400 N   0  0  0  0  0  0  0  0  0  0  0  0
    2.3612   -2.2329   -0.4552 C   0  0  0  0  0  0  0  0  0  0  0  0
    2.8180   -1.5018    0.6532 C   0  0  0  0  0  0  0  0  0  0  0  0
    4.1838   -1.4202    0.9310 C   0  0  0  0  0  0  0  0  0  0  0  0
    5.1078   -2.0546    0.0939 C   0  0  0  0  0  0  0  0  0  0  0  0
    4.6631   -2.7708   -1.0113 C   0  0  0  0  0  0  0  0  0  0  0  0
    3.2989   -2.8429   -1.2951 C   0  0  0  0  0  0  0  0  0  0  0  0
   -4.2391    0.4612    1.4249 H   0  0  0  0  0  0  0  0  0  0  0  0
   -6.3503    0.7777    0.2005 H   0  0  0  0  0  0  0  0  0  0  0  0
   -6.9177   -0.6923   -1.7048 H   0  0  0  0  0  0  0  0  0  0  0  0
   -5.3710   -2.5092   -2.3764 H   0  0  0  0  0  0  0  0  0  0  0  0
   -3.2522   -2.8399   -1.1763 H   0  0  0  0  0  0  0  0  0  0  0  0
   -2.1803   -0.5583    1.7036 H   0  0  0  0  0  0  0  0  0  0  0  0
   -2.7555   -3.5256    1.1889 H   0  0  0  0  0  0  0  0  0  0  0  0
   -0.9824   -1.9323    3.8638 H   0  0  0  0  0  0  0  0  0  0  0  0
   -0.0198   -4.7108    3.4754 H   0  0  0  0  0  0  0  0  0  0  0  0
   -1.4552   -5.2673    2.5844 H   0  0  0  0  0  0  0  0  0  0  0  0
   -1.6099   -4.2921    4.0626 H   0  0  0  0  0  0  0  0  0  0  0  0
   -5.6108   -1.8255    3.9590 H   0  0  0  0  0  0  0  0  0  0  0  0
   -5.1643   -3.4141    4.6421 H   0  0  0  0  0  0  0  0  0  0  0  0
   -7.5763   -3.3670    4.0432 H   0  0  0  0  0  0  0  0  0  0  0  0
   -7.1590   -2.9223    2.3743 H   0  0  0  0  0  0  0  0  0  0  0  0
   -6.7056   -4.4977    2.9728 H   0  0  0  0  0  0  0  0  0  0  0  0
    0.2753    1.5519   -2.3830 H   0  0  0  0  0  0  0  0  0  0  0  0
   -1.4234    1.3073   -2.9017 H   0  0  0  0  0  0  0  0  0  0  0  0
    0.2066    1.2734   -4.8341 H   0  0  0  0  0  0  0  0  0  0  0  0
   -0.7046   -0.2411   -4.6615 H   0  0  0  0  0  0  0  0  0  0  0  0
    0.9693   -0.1743   -4.1221 H   0  0  0  0  0  0  0  0  0  0  0  0
   -0.3586   -4.2946    0.5546 H   0  0  0  0  0  0  0  0  0  0  0  0
    0.9555   -3.5412    1.4570 H   0  0  0  0  0  0  0  0  0  0  0  0
    0.8660   -1.5793   -1.5890 H   0  0  0  0  0  0  0  0  0  0  0  0
    2.1135   -0.9805    1.2975 H   0  0  0  0  0  0  0  0  0  0  0  0
    4.5281   -0.8456    1.7911 H   0  0  0  0  0  0  0  0  0  0  0  0
    6.1707   -1.9871    0.3061 H   0  0  0  0  0  0  0  0  0  0  0  0
    5.3736   -3.2647   -1.6573 H   0  0  0  0  0  0  0  0  0  0  0  0
    2.9593   -3.4018   -2.1694 H   0  0  0  0  0  0  0  0  0  0  0  0
  1  2  2  0
  2  3  1  0
  3  4  2  0
  4  5  1  0
  5  6  2  0
  6  7  1  0
  7  8  1  0
  8  9  1  0
  9 10  1  0
  9 11  1  0
  8 12  1  0
 12 13  2  0
 12 14  1  0
 14 15  1  0
 15 16  1  0
  7 17  1  0
 17 18  1  0
 18 19  2  0
 18 20  1  0
 20 21  1  0
 21 22  1  0
 17 23  2  0
 23 24  1  0
 23 25  1  0
 25 26  1  0
 26 27  2  0
 27 28  1  0
 28 29  2  0
 29 30  1  0
 30 31  2  0
  6  1  1  0
 24  9  1  0
 31 26  1  0
  1 32  1  0
  2 33  1  0
  3 34  1  0
  4 35  1  0
  5 36  1  0
  7 37  1  0
  8 38  1  0
 10 39  1  0
 11 40  1  0
 11 41  1  0
 11 42  1  0
 15 43  1  0
 15 44  1  0
 16 45  1  0
 16 46  1  0
 16 47  1  0
 21 48  1  0
 21 49  1  0
 22 50  1  0
 22 51  1  0
 22 52  1  0
 24 53  1  0
 24 54  1  0
 25 55  1  0
 27 56  1  0
 28 57  1  0
 29 58  1  0
 30 59  1  0
 31 60  1  0
M  END
>  <mol_id>  (47) 
OSSL_628246

>  <drugclip_rank>  (47) 
47

>  <conformer>  (47) 
5

>  <align_rmsd>  (47) 
0.799

$$$$
G747-0035
     RDKit          3D

 66 69  0  0  0  0  0  0  0  0999 V2000
   -1.5587    3.1038   11.6035 C   0  0  0  0  0  0  0  0  0  0  0  0
   -0.4567    2.4665   10.7776 C   0  0  0  0  0  0  0  0  0  0  0  0
   -0.9397    2.1482    9.4633 O   0  0  0  0  0  0  0  0  0  0  0  0
   -1.5521    0.9435    9.3285 C   0  0  0  0  0  0  0  0  0  0  0  0
   -1.7272    0.1442   10.2427 O   0  0  0  0  0  0  0  0  0  0  0  0
   -2.0238    0.6797    7.9095 C   0  0  0  0  0  0  0  0  0  0  0  0
   -1.3606   -0.5950    7.3896 C   0  0  0  0  0  0  0  0  0  0  0  0
   -1.7776   -0.8972    5.9510 C   0  0  0  0  0  0  0  0  0  0  0  0
   -1.7726    1.8251    6.9282 C   0  0  0  0  0  0  0  0  0  0  0  0
   -2.1889    1.4365    5.5093 C   0  0  0  0  0  0  0  0  0  0  0  0
   -1.4735    0.2299    5.0516 N   0  0  0  0  0  0  0  0  0  0  0  0
   -1.8083   -0.0917    3.6273 C   0  0  0  0  0  0  0  0  0  0  0  0
   -1.4122    1.0134    2.6303 C   0  0  0  0  0  0  0  0  0  0  0  0
   -0.2103    1.7309    2.7490 C   0  0  0  0  0  0  0  0  0  0  0  0
    0.1304    2.6900    1.8015 C   0  0  0  0  0  0  0  0  0  0  0  0
    1.2807    3.3667    1.9259 F   0  0  0  0  0  0  0  0  0  0  0  0
   -0.7010    2.9577    0.7204 C   0  0  0  0  0  0  0  0  0  0  0  0
   -1.8939    2.2524    0.5817 C   0  0  0  0  0  0  0  0  0  0  0  0
   -2.2459    1.2858    1.5279 C   0  0  0  0  0  0  0  0  0  0  0  0
   -1.3126   -1.4352    3.0995 C   0  0  0  0  0  0  0  0  0  0  0  0
    0.1580   -1.7336    3.1153 C   0  0  0  0  0  0  0  0  0  0  0  0
    0.9558   -0.9518    3.6308 O   0  0  0  0  0  0  0  0  0  0  0  0
    0.5765   -2.9334    2.5140 N   0  0  0  0  0  0  0  0  0  0  0  0
   -0.3269   -3.8563    1.9815 C   0  0  0  0  0  0  0  0  0  0  0  0
    0.1639   -5.1386    1.3650 C   0  0  0  0  0  0  0  0  0  0  0  0
   -1.6429   -3.5958    2.0283 C   0  0  0  0  0  0  0  0  0  0  0  0
   -2.1351   -2.3644    2.5820 C   0  0  0  0  0  0  0  0  0  0  0  0
   -3.5012   -2.1744    2.5260 O   0  0  0  0  0  0  0  0  0  0  0  0
    2.0287   -3.1630    2.4603 C   0  0  0  0  0  0  0  0  0  0  0  0
    2.6527   -2.8091    1.1251 C   0  0  0  0  0  0  0  0  0  0  0  0
    2.4746   -1.5384    0.5566 C   0  0  0  0  0  0  0  0  0  0  0  0
    3.0684   -1.2155   -0.6648 C   0  0  0  0  0  0  0  0  0  0  0  0
    3.8554   -2.1546   -1.3294 C   0  0  0  0  0  0  0  0  0  0  0  0
    4.0555   -3.4141   -0.7687 C   0  0  0  0  0  0  0  0  0  0  0  0
    3.4638   -3.7375    0.4540 C   0  0  0  0  0  0  0  0  0  0  0  0
   -2.3969    2.4131   11.7412 H   0  0  0  0  0  0  0  0  0  0  0  0
   -1.1819    3.4002   12.5863 H   0  0  0  0  0  0  0  0  0  0  0  0
   -1.9552    3.9900   11.0966 H   0  0  0  0  0  0  0  0  0  0  0  0
   -0.0403    1.5824   11.2729 H   0  0  0  0  0  0  0  0  0  0  0  0
    0.3642    3.1787   10.6506 H   0  0  0  0  0  0  0  0  0  0  0  0
   -3.1100    0.5277    7.9756 H   0  0  0  0  0  0  0  0  0  0  0  0
   -0.2677   -0.5003    7.4446 H   0  0  0  0  0  0  0  0  0  0  0  0
   -1.6266   -1.4481    8.0266 H   0  0  0  0  0  0  0  0  0  0  0  0
   -1.2321   -1.7981    5.6518 H   0  0  0  0  0  0  0  0  0  0  0  0
   -2.8476   -1.1425    5.9194 H   0  0  0  0  0  0  0  0  0  0  0  0
   -2.3363    2.7145    7.2393 H   0  0  0  0  0  0  0  0  0  0  0  0
   -0.7112    2.1100    6.9298 H   0  0  0  0  0  0  0  0  0  0  0  0
   -3.2759    1.2794    5.4737 H   0  0  0  0  0  0  0  0  0  0  0  0
   -1.9738    2.2953    4.8659 H   0  0  0  0  0  0  0  0  0  0  0  0
   -2.9084   -0.1132    3.6075 H   0  0  0  0  0  0  0  0  0  0  0  0
    0.4720    1.5399    3.5749 H   0  0  0  0  0  0  0  0  0  0  0  0
   -0.4101    3.7082   -0.0072 H   0  0  0  0  0  0  0  0  0  0  0  0
   -2.5457    2.4479   -0.2645 H   0  0  0  0  0  0  0  0  0  0  0  0
   -3.1743    0.7329    1.3966 H   0  0  0  0  0  0  0  0  0  0  0  0
   -0.6651   -5.7720    1.0287 H   0  0  0  0  0  0  0  0  0  0  0  0
    0.7824   -4.9395    0.4855 H   0  0  0  0  0  0  0  0  0  0  0  0
    0.7379   -5.7292    2.0855 H   0  0  0  0  0  0  0  0  0  0  0  0
   -2.3514   -4.3073    1.6189 H   0  0  0  0  0  0  0  0  0  0  0  0
   -3.9218   -2.9567    2.1305 H   0  0  0  0  0  0  0  0  0  0  0  0
    2.5427   -2.5767    3.2311 H   0  0  0  0  0  0  0  0  0  0  0  0
    2.2286   -4.2080    2.7236 H   0  0  0  0  0  0  0  0  0  0  0  0
    1.8735   -0.7857    1.0621 H   0  0  0  0  0  0  0  0  0  0  0  0
    2.9146   -0.2293   -1.0933 H   0  0  0  0  0  0  0  0  0  0  0  0
    4.3171   -1.9026   -2.2809 H   0  0  0  0  0  0  0  0  0  0  0  0
    4.6772   -4.1442   -1.2812 H   0  0  0  0  0  0  0  0  0  0  0  0
    3.6407   -4.7233    0.8774 H   0  0  0  0  0  0  0  0  0  0  0  0
  1  2  1  0
  2  3  1  0
  3  4  1  0
  4  5  2  0
  4  6  1  0
  6  7  1  0
  7  8  1  0
  6  9  1  0
  9 10  1  0
 10 11  1  0
 11 12  1  0
 12 13  1  0
 13 14  2  0
 14 15  1  0
 15 16  1  0
 15 17  2  0
 17 18  1  0
 18 19  2  0
 12 20  1  0
 20 21  1  0
 21 22  2  0
 21 23  1  0
 23 24  1  0
 24 25  1  0
 24 26  2  0
 26 27  1  0
 27 28  1  0
 23 29  1  0
 29 30  1  0
 30 31  2  0
 31 32  1  0
 32 33  2  0
 33 34  1  0
 34 35  2  0
 11  8  1  0
 19 13  1  0
 27 20  2  0
 35 30  1  0
  1 36  1  0
  1 37  1  0
  1 38  1  0
  2 39  1  0
  2 40  1  0
  6 41  1  0
  7 42  1  0
  7 43  1  0
  8 44  1  0
  8 45  1  0
  9 46  1  0
  9 47  1  0
 10 48  1  0
 10 49  1  0
 12 50  1  0
 14 51  1  0
 17 52  1  0
 18 53  1  0
 19 54  1  0
 25 55  1  0
 25 56  1  0
 25 57  1  0
 26 58  1  0
 28 59  1  0
 29 60  1  0
 29 61  1  0
 31 62  1  0
 32 63  1  0
 33 64  1  0
 34 65  1  0
 35 66  1  0
M  END
>  <mol_id>  (48) 
G747-0035

>  <drugclip_rank>  (48) 
48

>  <conformer>  (48) 
16

>  <align_rmsd>  (48) 
1.138

$$$$
6405-0096
     RDKit          3D

 62 66  0  0  0  0  0  0  0  0999 V2000
   -1.4923    2.6946    0.5813 C   0  0  0  0  0  0  0  0  0  0  0  0
   -1.8042    3.9507    0.0581 C   0  0  0  0  0  0  0  0  0  0  0  0
   -0.7850    4.8367   -0.2836 C   0  0  0  0  0  0  0  0  0  0  0  0
    0.5463    4.4665   -0.1043 C   0  0  0  0  0  0  0  0  0  0  0  0
    0.8591    3.2093    0.4168 C   0  0  0  0  0  0  0  0  0  0  0  0
   -0.1573    2.3062    0.7638 C   0  0  0  0  0  0  0  0  0  0  0  0
    0.1869    0.9538    1.3426 C   0  0  0  0  0  0  0  0  0  0  0  0
   -0.3324   -0.1988    0.5508 N   0  0  0  0  0  0  0  0  0  0  0  0
    0.6299   -0.6713   -0.7872 S   0  0  0  0  0  0  0  0  0  0  0  0
    1.1921    0.5080   -1.4080 O   0  0  0  0  0  0  0  0  0  0  0  0
   -0.0926   -1.6595   -1.5597 O   0  0  0  0  0  0  0  0  0  0  0  0
   -0.7500   -1.3484    1.3290 C   0  0  0  0  0  0  0  0  0  0  0  0
   -2.1724   -1.3984    1.8140 C   0  0  0  0  0  0  0  0  0  0  0  0
   -2.4706   -1.9767    2.8604 O   0  0  0  0  0  0  0  0  0  0  0  0
   -3.2436   -0.7229    1.0453 C   0  0  0  0  0  0  0  0  0  0  0  0
   -4.2717   -0.0916    1.7605 C   0  0  0  0  0  0  0  0  0  0  0  0
   -5.3066    0.5516    1.0799 C   0  0  0  0  0  0  0  0  0  0  0  0
   -5.3263    0.5542   -0.3146 C   0  0  0  0  0  0  0  0  0  0  0  0
   -4.3203   -0.0963   -1.0296 C   0  0  0  0  0  0  0  0  0  0  0  0
   -3.2842   -0.7429   -0.3528 C   0  0  0  0  0  0  0  0  0  0  0  0
    0.1503   -2.3216    1.6333 C   0  0  0  0  0  0  0  0  0  0  0  0
    1.5805   -2.1883    1.2217 C   0  0  0  0  0  0  0  0  0  0  0  0
    1.9295   -1.5035    0.0537 C   0  0  0  0  0  0  0  0  0  0  0  0
    2.6394   -2.6650    2.0103 C   0  0  0  0  0  0  0  0  0  0  0  0
    3.9729   -2.5132    1.6082 C   0  0  0  0  0  0  0  0  0  0  0  0
    4.2801   -1.8544    0.4200 C   0  0  0  0  0  0  0  0  0  0  0  0
    3.2552   -1.3297   -0.3592 C   0  0  0  0  0  0  0  0  0  0  0  0
   -0.2640   -3.4304    2.3628 N   0  0  0  0  0  0  0  0  0  0  0  0
    0.2374   -4.7198    2.3342 C   0  0  0  0  0  0  0  0  0  0  0  0
    1.1462   -5.1053    1.6048 O   0  0  0  0  0  0  0  0  0  0  0  0
   -0.4578   -5.7241    3.2033 C   0  0  0  0  0  0  0  0  0  0  0  0
   -1.1621   -5.3970    4.3790 C   0  0  0  0  0  0  0  0  0  0  0  0
   -1.1724   -4.0829    4.7661 O   0  0  0  0  0  0  0  0  0  0  0  0
   -2.1336   -3.6915    5.7391 C   0  0  0  0  0  0  0  0  0  0  0  0
   -1.7730   -6.4221    5.1156 C   0  0  0  0  0  0  0  0  0  0  0  0
   -1.6941   -7.7518    4.6917 C   0  0  0  0  0  0  0  0  0  0  0  0
   -0.9987   -8.0751    3.5327 C   0  0  0  0  0  0  0  0  0  0  0  0
   -0.3807   -7.0670    2.7943 C   0  0  0  0  0  0  0  0  0  0  0  0
   -2.3035    2.0202    0.8384 H   0  0  0  0  0  0  0  0  0  0  0  0
   -2.8437    4.2340   -0.0867 H   0  0  0  0  0  0  0  0  0  0  0  0
   -1.0276    5.8125   -0.6963 H   0  0  0  0  0  0  0  0  0  0  0  0
    1.3432    5.1533   -0.3790 H   0  0  0  0  0  0  0  0  0  0  0  0
    1.9059    2.9350    0.5316 H   0  0  0  0  0  0  0  0  0  0  0  0
   -0.2384    0.9250    2.3561 H   0  0  0  0  0  0  0  0  0  0  0  0
    1.2703    0.8591    1.4869 H   0  0  0  0  0  0  0  0  0  0  0  0
   -4.2673   -0.0977    2.8489 H   0  0  0  0  0  0  0  0  0  0  0  0
   -6.0997    1.0454    1.6365 H   0  0  0  0  0  0  0  0  0  0  0  0
   -6.1327    1.0525   -0.8476 H   0  0  0  0  0  0  0  0  0  0  0  0
   -4.3448   -0.1098   -2.1174 H   0  0  0  0  0  0  0  0  0  0  0  0
   -2.5323   -1.2688   -0.9344 H   0  0  0  0  0  0  0  0  0  0  0  0
    2.4410   -3.1791    2.9488 H   0  0  0  0  0  0  0  0  0  0  0  0
    4.7705   -2.9187    2.2266 H   0  0  0  0  0  0  0  0  0  0  0  0
    5.3166   -1.7398    0.1125 H   0  0  0  0  0  0  0  0  0  0  0  0
    3.4874   -0.7787   -1.2677 H   0  0  0  0  0  0  0  0  0  0  0  0
   -1.1493   -3.3262    2.8689 H   0  0  0  0  0  0  0  0  0  0  0  0
   -2.1187   -2.5986    5.8012 H   0  0  0  0  0  0  0  0  0  0  0  0
   -1.8690   -4.0843    6.7265 H   0  0  0  0  0  0  0  0  0  0  0  0
   -3.1448   -3.9956    5.4479 H   0  0  0  0  0  0  0  0  0  0  0  0
   -2.3062   -6.2211    6.0392 H   0  0  0  0  0  0  0  0  0  0  0  0
   -2.1697   -8.5378    5.2755 H   0  0  0  0  0  0  0  0  0  0  0  0
   -0.9301   -9.1093    3.2035 H   0  0  0  0  0  0  0  0  0  0  0  0
    0.1636   -7.3313    1.8889 H   0  0  0  0  0  0  0  0  0  0  0  0
  1  2  2  0
  2  3  1  0
  3  4  2  0
  4  5  1  0
  5  6  2  0
  6  7  1  0
  7  8  1  0
  8  9  1  0
  9 10  2  0
  9 11  2  0
  8 12  1  0
 12 13  1  0
 13 14  2  0
 13 15  1  0
 15 16  2  0
 16 17  1  0
 17 18  2  0
 18 19  1  0
 19 20  2  0
 12 21  2  0
 21 22  1  0
 22 23  2  0
 22 24  1  0
 24 25  2  0
 25 26  1  0
 26 27  2  0
 21 28  1  0
 28 29  1  0
 29 30  2  0
 29 31  1  0
 31 32  2  0
 32 33  1  0
 33 34  1  0
 32 35  1  0
 35 36  2  0
 36 37  1  0
 37 38  2  0
  6  1  1  0
 23  9  1  0
 20 15  1  0
 27 23  1  0
 38 31  1  0
  1 39  1  0
  2 40  1  0
  3 41  1  0
  4 42  1  0
  5 43  1  0
  7 44  1  0
  7 45  1  0
 16 46  1  0
 17 47  1  0
 18 48  1  0
 19 49  1  0
 20 50  1  0
 24 51  1  0
 25 52  1  0
 26 53  1  0
 27 54  1  0
 28 55  1  0
 34 56  1  0
 34 57  1  0
 34 58  1  0
 35 59  1  0
 36 60  1  0
 37 61  1  0
 38 62  1  0
M  END
>  <mol_id>  (49) 
6405-0096

>  <drugclip_rank>  (49) 
49

>  <conformer>  (49) 
9

>  <align_rmsd>  (49) 
1.24

$$$$
STL239229
     RDKit          3D

 55 59  0  0  0  0  0  0  0  0999 V2000
   -2.2627   -6.0114    2.2671 C   0  0  0  0  0  0  0  0  0  0  0  0
   -2.6534   -7.2832    2.6583 C   0  0  0  0  0  0  0  0  0  0  0  0
   -3.4500   -8.0859    1.9217 N   0  0  0  0  0  0  0  0  0  0  0  0
   -3.8878   -7.5857    0.7475 C   0  0  0  0  0  0  0  0  0  0  0  0
   -3.5550   -6.3266    0.2710 C   0  0  0  0  0  0  0  0  0  0  0  0
   -2.7276   -5.5086    1.0477 C   0  0  0  0  0  0  0  0  0  0  0  0
   -2.3012   -4.1533    0.5291 C   0  0  0  0  0  0  0  0  0  0  0  0
   -2.0632   -3.1546    1.6056 N   0  0  0  0  0  0  0  0  0  0  0  0
   -3.4422   -2.2841    2.1040 S   0  0  0  0  0  0  0  0  0  0  0  0
   -3.1232   -1.6215    3.3493 O   0  0  0  0  0  0  0  0  0  0  0  0
   -4.6112   -3.1226    1.9591 O   0  0  0  0  0  0  0  0  0  0  0  0
   -0.8799   -2.2315    1.4050 C   0  0  0  0  0  0  0  0  0  0  0  0
   -1.0984   -1.3231    0.1623 C   0  0  0  0  0  0  0  0  0  0  0  0
   -0.9663   -2.0871   -1.0470 O   0  0  0  0  0  0  0  0  0  0  0  0
   -2.4355   -0.6063    0.1216 C   0  0  0  0  0  0  0  0  0  0  0  0
   -3.5506   -0.9922    0.8855 C   0  0  0  0  0  0  0  0  0  0  0  0
   -2.5905    0.4801   -0.7609 C   0  0  0  0  0  0  0  0  0  0  0  0
   -3.8180    1.1363   -0.8883 C   0  0  0  0  0  0  0  0  0  0  0  0
   -4.9158    0.7209   -0.1386 C   0  0  0  0  0  0  0  0  0  0  0  0
   -4.7852   -0.3433    0.7508 C   0  0  0  0  0  0  0  0  0  0  0  0
    0.4445   -3.0204    1.3861 C   0  0  0  0  0  0  0  0  0  0  0  0
    1.6459   -2.1409    1.5754 C   0  0  0  0  0  0  0  0  0  0  0  0
    2.1401   -1.6851    2.7826 C   0  0  0  0  0  0  0  0  0  0  0  0
    3.2378   -0.9066    2.5330 N   0  0  0  0  0  0  0  0  0  0  0  0
    3.4709   -0.8337    1.1807 C   0  0  0  0  0  0  0  0  0  0  0  0
    2.4957   -1.6071    0.5518 C   0  0  0  0  0  0  0  0  0  0  0  0
    4.4651   -0.1501    0.4743 C   0  0  0  0  0  0  0  0  0  0  0  0
    4.4568   -0.2618   -0.9199 C   0  0  0  0  0  0  0  0  0  0  0  0
    3.5006   -1.0281   -1.5879 C   0  0  0  0  0  0  0  0  0  0  0  0
    2.5151   -1.7041   -0.8585 C   0  0  0  0  0  0  0  0  0  0  0  0
    3.6292   -1.0342   -2.9518 O   0  0  0  0  0  0  0  0  0  0  0  0
    2.7146   -1.8448   -3.6782 C   0  0  0  0  0  0  0  0  0  0  0  0
   -1.6162   -5.4243    2.9113 H   0  0  0  0  0  0  0  0  0  0  0  0
   -2.3209   -7.7026    3.6038 H   0  0  0  0  0  0  0  0  0  0  0  0
   -4.5308   -8.2472    0.1749 H   0  0  0  0  0  0  0  0  0  0  0  0
   -3.9414   -5.9943   -0.6865 H   0  0  0  0  0  0  0  0  0  0  0  0
   -3.0450   -3.7666   -0.1798 H   0  0  0  0  0  0  0  0  0  0  0  0
   -1.3926   -4.3328   -0.0521 H   0  0  0  0  0  0  0  0  0  0  0  0
   -0.8395   -1.5786    2.2886 H   0  0  0  0  0  0  0  0  0  0  0  0
   -0.3082   -0.5632    0.1465 H   0  0  0  0  0  0  0  0  0  0  0  0
   -1.5483   -1.6940   -1.7219 H   0  0  0  0  0  0  0  0  0  0  0  0
   -1.7490    0.8262   -1.3614 H   0  0  0  0  0  0  0  0  0  0  0  0
   -3.9161    1.9763   -1.5723 H   0  0  0  0  0  0  0  0  0  0  0  0
   -5.8702    1.2333   -0.2370 H   0  0  0  0  0  0  0  0  0  0  0  0
   -5.6393   -0.6520    1.3514 H   0  0  0  0  0  0  0  0  0  0  0  0
    0.5603   -3.5948    0.4606 H   0  0  0  0  0  0  0  0  0  0  0  0
    0.4326   -3.7628    2.1954 H   0  0  0  0  0  0  0  0  0  0  0  0
    1.8052   -1.8509    3.7982 H   0  0  0  0  0  0  0  0  0  0  0  0
    3.8017   -0.4523    3.2385 H   0  0  0  0  0  0  0  0  0  0  0  0
    5.2183    0.4461    0.9795 H   0  0  0  0  0  0  0  0  0  0  0  0
    5.2178    0.2603   -1.4967 H   0  0  0  0  0  0  0  0  0  0  0  0
    1.7562   -2.3037   -1.3448 H   0  0  0  0  0  0  0  0  0  0  0  0
    1.6889   -1.4785   -3.5645 H   0  0  0  0  0  0  0  0  0  0  0  0
    2.7944   -2.8963   -3.3828 H   0  0  0  0  0  0  0  0  0  0  0  0
    2.9780   -1.7774   -4.7385 H   0  0  0  0  0  0  0  0  0  0  0  0
  1  2  2  0
  2  3  1  0
  3  4  2  0
  4  5  1  0
  5  6  2  0
  6  7  1  0
  7  8  1  0
  8  9  1  0
  9 10  2  0
  9 11  2  0
  8 12  1  0
 12 13  1  0
 13 14  1  0
 13 15  1  0
 15 16  2  0
 15 17  1  0
 17 18  2  0
 18 19  1  0
 19 20  2  0
 12 21  1  0
 21 22  1  0
 22 23  2  0
 23 24  1  0
 24 25  1  0
 25 26  2  0
 25 27  1  0
 27 28  2  0
 28 29  1  0
 29 30  2  0
 29 31  1  0
 31 32  1  0
  6  1  1  0
 16  9  1  0
 20 16  1  0
 26 22  1  0
 30 26  1  0
  1 33  1  0
  2 34  1  0
  4 35  1  0
  5 36  1  0
  7 37  1  0
  7 38  1  0
 12 39  1  0
 13 40  1  0
 14 41  1  0
 17 42  1  0
 18 43  1  0
 19 44  1  0
 20 45  1  0
 21 46  1  0
 21 47  1  0
 23 48  1  0
 24 49  1  0
 27 50  1  0
 28 51  1  0
 30 52  1  0
 32 53  1  0
 32 54  1  0
 32 55  1  0
M  END
>  <mol_id>  (50) 
STL239229

>  <drugclip_rank>  (50) 
50

>  <conformer>  (50) 
16

>  <align_rmsd>  (50) 
0.876

$$$$
