STL001747
     RDKit          3D

 39 44  0  0  0  0  0  0  0  0999 V2000
   -1.5055   -3.9801    6.9779 C   0  0  0  0  0  0  0  0  0  0  0  0
   -2.3743   -3.9138    8.0674 C   0  0  0  0  0  0  0  0  0  0  0  0
   -3.7338   -3.6784    7.8649 C   0  0  0  0  0  0  0  0  0  0  0  0
   -4.2249   -3.5068    6.5726 C   0  0  0  0  0  0  0  0  0  0  0  0
   -3.3577   -3.5710    5.4798 C   0  0  0  0  0  0  0  0  0  0  0  0
   -1.9899   -3.8158    5.6724 C   0  0  0  0  0  0  0  0  0  0  0  0
   -1.0413   -3.8453    4.4987 C   0  0  0  0  0  0  0  0  0  0  0  0
   -0.5113   -2.5282    4.2235 N   0  0  0  0  0  0  0  0  0  0  0  0
   -1.0939   -1.6342    3.3776 C   0  0  0  0  0  0  0  0  0  0  0  0
   -2.1200   -1.8005    2.7321 O   0  0  0  0  0  0  0  0  0  0  0  0
    0.6206   -2.0399    4.8083 C   0  0  0  0  0  0  0  0  0  0  0  0
    1.3440   -2.6367    5.5974 O   0  0  0  0  0  0  0  0  0  0  0  0
    0.8553   -0.6390    4.2879 C   0  0  2  0  0  0  0  0  0  0  0  0
   -0.2942   -0.3678    3.3449 C   0  0  1  0  0  0  0  0  0  0  0  0
    2.0740   -0.5877    3.5575 O   0  0  0  0  0  0  0  0  0  0  0  0
    1.7177   -0.6360    2.2026 N   0  0  0  0  0  0  0  0  0  0  0  0
    2.4477   -1.3972    1.2918 C   0  0  0  0  0  0  0  0  0  0  0  0
    3.6008   -2.0799    1.7114 C   0  0  0  0  0  0  0  0  0  0  0  0
    4.3660   -2.8461    0.8258 C   0  0  0  0  0  0  0  0  0  0  0  0
    3.9947   -2.9405   -0.5102 C   0  0  0  0  0  0  0  0  0  0  0  0
    2.8660   -2.2623   -0.9570 C   0  0  0  0  0  0  0  0  0  0  0  0
    2.1060   -1.4958   -0.0650 C   0  0  0  0  0  0  0  0  0  0  0  0
    0.3427   -0.1832    1.9826 C   0  0  2  0  0  0  0  0  0  0  0  0
    0.2665    1.2701    1.5293 C   0  0  0  0  0  0  0  0  0  0  0  0
   -0.9084    1.7786    0.9463 C   0  0  0  0  0  0  0  0  0  0  0  0
   -1.0181    3.1286    0.6020 C   0  0  0  0  0  0  0  0  0  0  0  0
    0.0620    3.9875    0.7903 C   0  0  0  0  0  0  0  0  0  0  0  0
    1.2434    3.5018    1.3391 C   0  0  0  0  0  0  0  0  0  0  0  0
    1.3433    2.1596    1.7089 C   0  0  0  0  0  0  0  0  0  0  0  0
   -2.0124    0.9779    0.7874 O   0  0  0  0  0  0  0  0  0  0  0  0
   -2.3381    0.3845   -0.7121 S   0  0  0  0  0  0  0  0  0  0  0  0
   -1.4869   -0.7688   -0.9453 O   0  0  0  0  0  0  0  0  0  0  0  0
   -2.3856    1.4819   -1.6638 O   0  0  0  0  0  0  0  0  0  0  0  0
   -4.0039   -0.2326   -0.5864 C   0  0  0  0  0  0  0  0  0  0  0  0
   -4.7642   -0.3684   -1.7555 C   0  0  0  0  0  0  0  0  0  0  0  0
   -6.0824   -0.8197   -1.6685 C   0  0  0  0  0  0  0  0  0  0  0  0
   -6.6347   -1.1243   -0.4238 C   0  0  0  0  0  0  0  0  0  0  0  0
   -5.8721   -0.9851    0.7378 C   0  0  0  0  0  0  0  0  0  0  0  0
   -4.5538   -0.5326    0.6603 C   0  0  0  0  0  0  0  0  0  0  0  0
  1  2  2  0
  2  3  1  0
  3  4  2  0
  4  5  1  0
  5  6  2  0
  6  7  1  0
  7  8  1  0
  8  9  1  0
  9 10  2  0
  8 11  1  0
 11 12  2  0
 11 13  1  0
 13 14  1  0
 13 15  1  6
 15 16  1  0
 16 17  1  0
 17 18  2  0
 18 19  1  0
 19 20  2  0
 20 21  1  0
 21 22  2  0
 16 23  1  0
 23 24  1  1
 24 25  1  0
 25 26  2  0
 26 27  1  0
 27 28  2  0
 28 29  1  0
 25 30  1  0
 30 31  1  0
 31 32  2  0
 31 33  2  0
 31 34  1  0
 34 35  2  0
 35 36  1  0
 36 37  2  0
 37 38  1  0
 38 39  2  0
  6  1  1  0
 14  9  1  6
 23 14  1  0
 22 17  1  0
 29 24  2  0
 39 34  1  0
M  END
>  <mol_id>  (1) 
STL001747

>  <drugclip_rank>  (1) 
18

>  <conformer>  (1) 
3

>  <align_rmsd>  (1) 
1.332

$$$$
