@<TRIPOS>MOLECULE
7JOZ_VFP_R1201
 27 30 0 0 0
SMALL
GASTEIGER

@<TRIPOS>ATOM
      1 C         123.1180  119.8620  142.8330 C.ar    1  UNL1        0.1515
      2 C         123.6100  119.6210  140.6980 C.ar    1  UNL1        0.1798
      3 N         124.4830  120.8200  145.0250 N.ar    1  UNL1       -0.2096
      4 C         125.1040  120.8110  143.8120 C.ar    1  UNL1        0.2326
      5 N         130.8650  124.9010  149.8130 N.ar    1  UNL1       -0.1534
      6 C         122.4810  119.8710  144.0710 C.ar    1  UNL1        0.0584
      7 C         124.4400  120.3270  142.6600 C.ar    1  UNL1        0.0912
      8 C         128.2410  121.6800  146.8670 C.ar    1  UNL1       -0.0174
      9 C         128.6320  123.0380  146.7590 C.ar    1  UNL1        0.0120
     10 C         128.2730  123.7880  145.6210 C.ar    1  UNL1        0.0042
     11 C         127.5230  123.1910  144.5890 C.ar    1  UNL1        0.0376
     12 C         128.6180  120.8520  148.0840 C.3     1  UNL1        0.0312
     13 C         129.4890  124.9860  149.8800 C.ar    1  UNL1        0.3528
     14 C         131.5900  124.2560  148.8230 C.ar    1  UNL1        0.2804
     15 C         130.7890  123.6170  147.7750 C.ar    1  UNL1        0.0519
     16 C         129.4240  123.6880  147.8230 C.ar    1  UNL1        0.0643
     17 C         131.5750  122.9010  146.6790 C.3     1  UNL1        0.0376
     18 C         127.3180  124.4830  148.9850 C.3     1  UNL1        0.1351
     19 C         123.2170  120.3660  145.1520 C.ar    1  UNL1        0.1052
     20 C         124.7400  120.1590  141.2650 C.ar    1  UNL1        0.0484
     21 C         127.1230  121.8440  144.6920 C.ar    1  UNL1        0.1469
     22 C         127.4900  121.0910  145.8280 C.ar    1  UNL1        0.0334
     23 N         128.7540  124.3580  148.8530 N.ar    1  UNL1       -0.2781
     24 O         122.6160  119.4290  141.6230 O.2     1  UNL1       -0.4502
     25 O         126.3990  121.2710  143.6750 O.3     1  UNL1       -0.4360
     26 O         132.8210  124.2580  148.8840 O.2     1  UNL1       -0.2654
     27 O         128.9610  125.5920  150.8150 O.2     1  UNL1       -0.2443
@<TRIPOS>BOND
     1     4     3   ar
     2     6     1   ar
     3     7     1   ar
     4     7     4   ar
     5     9     8   ar
     6    10     9   ar
     7    11    10   ar
     8    12     8    1
     9    13     5   ar
    10    14     5   ar
    11    15    14   ar
    12    16     9    1
    13    16    15   ar
    14    17    15    1
    15    19     6   ar
    16    19     3   ar
    17    20     2   ar
    18    20     7   ar
    19    21    11   ar
    20    22    21   ar
    21    22     8   ar
    22    23    18    1
    23    23    16   ar
    24    23    13   ar
    25    24     2   ar
    26    24     1   ar
    27    25     4    1
    28    25    21    1
    29    26    14    2
    30    27    13    2
