3REY_XAC_A999
     RDKit          3D

 31 33  0  0  0  0  0  0  0  0999 V2000
   -0.4980   96.7780   51.8410 C   0  0  0  0  0  0  0  0  0  0  0  0
    2.1440   95.7820   51.9000 N   0  0  0  0  0  0  0  0  0  0  0  0
   -1.6400   97.2550   51.8630 O   0  0  0  0  0  0  0  0  0  0  0  0
    1.2250   95.2770   51.0060 C   0  0  0  0  0  0  0  0  0  0  0  0
   -0.0710   95.7660   51.0260 N   0  0  0  0  0  0  0  0  0  0  0  0
    1.5590   94.3870   50.2090 O   0  0  0  0  0  0  0  0  0  0  0  0
    1.6160   98.3330   54.3360 C   0  0  0  0  0  0  0  0  0  0  0  0
    2.5030   97.4760   53.7910 N   0  0  0  0  0  0  0  0  0  0  0  0
    2.6580  101.6970   58.8080 O   0  0  0  0  0  0  0  0  0  0  0  0
    1.7760   96.8140   52.7980 C   0  0  0  0  0  0  0  0  0  0  0  0
    0.4120   98.2400   53.7330 N   0  0  0  0  0  0  0  0  0  0  0  0
    3.7300  103.5510   60.8760 O   0  0  0  0  0  0  0  0  0  0  0  0
    0.5160   97.2730   52.7510 C   0  0  0  0  0  0  0  0  0  0  0  0
    3.5330  101.6170   62.0220 N   0  0  0  0  0  0  0  0  0  0  0  0
   -1.0840   95.1230   50.1570 C   0  0  0  0  0  0  0  0  0  0  0  0
    3.0540  101.6050   65.7180 N   0  0  0  0  0  0  0  0  0  0  0  0
   -1.7910   93.9620   50.8840 C   0  0  0  0  0  0  0  0  0  0  0  0
    3.5110   95.2490   51.9820 C   0  0  0  0  0  0  0  0  0  0  0  0
    4.5100   96.1080   51.1880 C   0  0  0  0  0  0  0  0  0  0  0  0
    5.9610   95.6700   51.4110 C   0  0  0  0  0  0  0  0  0  0  0  0
   -2.7410   93.1790   49.9730 C   0  0  0  0  0  0  0  0  0  0  0  0
    2.4860  100.8910   57.7040 C   0  0  0  0  0  0  0  0  0  0  0  0
    3.4770  100.0260   57.1780 C   0  0  0  0  0  0  0  0  0  0  0  0
    3.1960   99.2010   56.0720 C   0  0  0  0  0  0  0  0  0  0  0  0
    1.9220   99.2280   55.4580 C   0  0  0  0  0  0  0  0  0  0  0  0
    0.9450  100.1170   55.9610 C   0  0  0  0  0  0  0  0  0  0  0  0
    1.2280  100.9380   57.0720 C   0  0  0  0  0  0  0  0  0  0  0  0
    3.8360  101.5210   59.5910 C   0  0  0  0  0  0  0  0  0  0  0  0
    3.6960  102.3170   60.8920 C   0  0  0  0  0  0  0  0  0  0  0  0
    3.3960  102.1820   63.3570 C   0  0  0  0  0  0  0  0  0  0  0  0
    3.1960  101.0560   64.3840 C   0  0  0  0  0  0  0  0  0  0  0  0
  3  1  2  0
  4  2  1  0
  5  4  1  0
  5  1  1  0
  6  4  2  0
  8  7  2  0
 10  8  1  0
 10  2  1  0
 11  7  1  0
 13 10  2  0
 13  1  1  0
 13 11  1  0
 15  5  1  0
 17 15  1  0
 18  2  1  0
 19 18  1  0
 20 19  1  0
 21 17  1  0
 22  9  1  0
 23 22  2  0
 24 23  1  0
 25  7  1  0
 25 24  2  0
 26 25  1  0
 27 26  2  0
 27 22  1  0
 28  9  1  0
 29 28  1  0
 29 14  1  0
 29 12  2  0
 30 14  1  0
 31 30  1  0
 31 16  1  0
M  CHG  2  14   1  16   1
M  END
>  <_TriposChargeType>  (1) 
GASTEIGER

$$$$
