8JWY_VBF_A1201
     RDKit          3D

 34 37  0  0  0  0  0  0  0  0999 V2000
   -0.0130   94.7440   51.6110 C   0  0  0  0  0  0  0  0  0  0  0  0
    2.3310   96.8160   53.5300 C   0  0  0  0  0  0  0  0  0  0  0  0
    3.6830   98.5040   54.5270 C   0  0  0  0  0  0  0  0  0  0  0  0
    5.6250   98.0060   55.8410 C   0  0  0  0  0  0  0  0  0  0  0  0
    4.8630   97.9030   59.5750 C   0  0  0  0  0  0  0  0  0  0  0  0
    4.0890   99.0510   59.6760 C   0  0  0  0  0  0  0  0  0  0  0  0
    3.8490   99.8060   58.5410 C   0  0  0  0  0  0  0  0  0  0  0  0
    1.7000  100.7790   59.3580 C   0  0  0  0  0  0  0  0  0  0  0  0
    4.2780   96.2850   54.8310 C   0  0  0  0  0  0  0  0  0  0  0  0
    2.1520   92.6370   50.8020 C   0  0  0  0  0  0  0  0  0  0  0  0
    0.6330   92.4460   50.8300 C   0  0  0  0  0  0  0  0  0  0  0  0
    0.1870   91.1920   50.4460 C   0  0  0  0  0  0  0  0  0  0  0  0
    1.2120   90.1300   50.0460 C   0  0  0  0  0  0  0  0  0  0  0  0
   -1.1640   90.8880   50.4240 C   0  0  0  0  0  0  0  0  0  0  0  0
   -2.0850   91.8520   50.7890 C   0  0  0  0  0  0  0  0  0  0  0  0
   -1.6480   93.1080   51.1710 C   0  0  0  0  0  0  0  0  0  0  0  0
   -0.2990   93.4310   51.2050 C   0  0  0  0  0  0  0  0  0  0  0  0
    1.0690   95.1050   52.4100 C   0  0  0  0  0  0  0  0  0  0  0  0
    1.2400   96.4360   52.7550 C   0  0  0  0  0  0  0  0  0  0  0  0
    2.5810   98.1600   53.7610 C   0  0  0  0  0  0  0  0  0  0  0  0
    5.0890   98.3660   57.2320 C   0  0  0  0  0  0  0  0  0  0  0  0
    5.3620   97.5640   58.3220 C   0  0  0  0  0  0  0  0  0  0  0  0
    2.9990  101.0760   58.6150 C   0  0  1  0  0  0  0  0  0  0  0  0
    3.7710  102.1780   59.3370 C   0  0  0  0  0  0  0  0  0  0  0  0
    3.1910   95.8670   54.0660 C   0  0  0  0  0  0  0  0  0  0  0  0
   -0.6700   96.9680   51.5950 C   0  0  0  0  0  0  0  0  0  0  0  0
    1.9770   89.3470   49.7500 N   0  0  0  0  0  0  0  0  0  0  0  0
    4.4850   97.5830   55.0320 N   0  0  0  0  0  0  0  0  0  0  0  0
    4.3460   99.4500   57.3730 N   0  0  0  0  0  0  0  0  0  0  0  0
    0.3610   97.3360   52.3390 N   0  0  0  0  0  0  0  0  0  0  0  0
   -1.6210   97.9710   51.1520 N   0  0  0  0  0  0  0  0  0  0  0  0
   -0.8530   95.7030   51.2460 N   0  0  0  0  0  0  0  0  0  0  0  0
    2.7040  101.4840   57.3090 O   0  0  0  0  0  0  0  0  0  0  0  0
    5.0220   95.4890   55.3010 O   0  0  0  0  0  0  0  0  0  0  0  0
  6  5  2  0
  7  6  1  0
 11 10  1  0
 12 11  2  0
 13 12  1  0
 14 12  1  0
 15 14  2  0
 16 15  1  0
 17 11  1  0
 17 16  2  0
 17  1  1  0
 18  1  2  0
 19 18  1  0
 19  2  1  0
 20  2  1  0
 20  3  2  0
 21  4  1  0
 22  5  1  0
 22 21  2  0
 23  8  1  1
 23  7  1  0
 24 23  1  0
 25  2  2  0
 25  9  1  0
 27 13  3  0
 28  9  1  0
 28  3  1  0
 28  4  1  0
 29 21  1  0
 29  7  2  0
 30 26  1  0
 30 19  2  0
 31 26  1  0
 32 26  2  0
 32  1  1  0
 33 23  1  0
 34  9  2  0
M  END
>  <_TriposChargeType>  (1) 
GASTEIGER

$$$$
