8RW4_A1H3L_A1201
     RDKit          3D

 27 29  0  0  0  0  0  0  0  0999 V2000
    3.1050   93.1050   52.6710 O   0  0  0  0  0  0  0  0  0  0  0  0
    0.2690   91.8570   51.3420 C   0  0  0  0  0  0  0  0  0  0  0  0
    1.2680   94.0940   51.7530 N   0  0  0  0  0  0  0  0  0  0  0  0
    1.1100   92.9760   50.8070 C   0  0  0  0  0  0  0  0  0  0  0  0
    1.8410  103.2020   56.3140 C   0  0  0  0  0  0  0  0  0  0  0  0
    0.7630  104.0150   55.9200 C   0  0  0  0  0  0  0  0  0  0  0  0
   -0.2200  106.1900   55.9210 C   0  0  0  0  0  0  0  0  0  0  0  0
   -0.2570  103.4830   55.1470 C   0  0  0  0  0  0  0  0  0  0  0  0
   -0.2020  102.1570   54.7560 C   0  0  0  0  0  0  0  0  0  0  0  0
    3.9480  103.0450   57.4210 C   0  0  0  0  0  0  0  0  0  0  0  0
    0.3490   95.1430   51.6480 C   0  0  0  0  0  0  0  0  0  0  0  0
    2.3630   94.0690   52.6000 C   0  0  0  0  0  0  0  0  0  0  0  0
    3.7050   95.2190   54.2920 C   0  0  0  0  0  0  0  0  0  0  0  0
    4.9800   95.6730   53.6270 C   0  0  0  0  0  0  0  0  0  0  0  0
    1.7330   96.3170   53.3020 C   0  0  0  0  0  0  0  0  0  0  0  0
    0.6490   96.2680   52.4630 C   0  0  0  0  0  0  0  0  0  0  0  0
    0.7650   98.1830   53.5230 C   0  0  0  0  0  0  0  0  0  0  0  0
    0.8660  101.3520   55.1360 C   0  0  0  0  0  0  0  0  0  0  0  0
    1.8800  101.8760   55.9310 C   0  0  0  0  0  0  0  0  0  0  0  0
    2.5620   95.2030   53.3620 N   0  0  0  0  0  0  0  0  0  0  0  0
    0.0320   97.4840   52.6180 N   0  0  0  0  0  0  0  0  0  0  0  0
    1.8220   97.5050   53.9650 N   0  0  0  0  0  0  0  0  0  0  0  0
    0.3550   99.4730   53.9000 N   0  0  0  0  0  0  0  0  0  0  0  0
    1.1430  100.0080   54.7340 N   0  0  0  0  0  0  0  0  0  0  0  0
    0.8270  105.3160   56.3360 O   0  0  0  0  0  0  0  0  0  0  0  0
    2.8160  103.8240   57.0410 O   0  0  0  0  0  0  0  0  0  0  0  0
   -0.6210   95.0270   50.9080 O   0  0  0  0  0  0  0  0  0  0  0  0
  4  2  1  0
  4  3  1  0
  6  5  2  0
  8  6  1  0
  9  8  2  0
 11  3  1  0
 12  3  1  0
 12  1  2  0
 14 13  1  0
 16 15  2  0
 16 11  1  0
 18  9  1  0
 19 18  2  0
 19  5  1  0
 20 15  1  0
 20 13  1  0
 20 12  1  0
 21 16  1  0
 21 17  1  0
 22 15  1  0
 22 17  2  0
 23 17  1  0
 24 23  2  3
 24 18  1  0
 25  7  1  0
 25  6  1  0
 26 10  1  0
 26  5  1  0
 27 11  2  0
M  END
>  <_TriposChargeType>  (1) 
GASTEIGER

$$$$
