Z285136922
     RDKit          3D

 10 10  0  0  0  0  0  0  0  0999 V2000
    2.9194   -0.0462   -0.1832 Br  0  0  0  0  0  0  0  0  0  0  0  0
    1.0460   -0.0273   -0.0659 C   0  0  0  0  0  0  0  0  0  0  0  0
    0.3010   -1.1846   -0.0499 C   0  0  0  0  0  0  0  0  0  0  0  0
   -1.0475   -1.2025    0.0337 N   0  0  0  0  0  0  0  0  0  0  0  0
   -1.6428   -0.0001    0.1024 C   0  0  0  0  0  0  0  0  0  0  0  0
   -1.0195    1.1900    0.0948 N   0  0  0  0  0  0  0  0  0  0  0  0
    0.3283    1.1448    0.0096 C   0  0  0  0  0  0  0  0  0  0  0  0
    0.7684   -2.1634   -0.1047 H   0  0  0  0  0  0  0  0  0  0  0  0
   -2.7253    0.0109    0.1701 H   0  0  0  0  0  0  0  0  0  0  0  0
    0.8185    2.1140    0.0045 H   0  0  0  0  0  0  0  0  0  0  0  0
  1  2  1  0
  2  3  2  0
  3  4  1  0
  4  5  2  0
  5  6  1  0
  6  7  2  0
  7  2  1  0
  3  8  1  0
  5  9  1  0
  7 10  1  0
M  END
>  <mol_id>  (1) 
Z285136922

>  <drugclip_rank>  (1) 
1

>  <conformer>  (1) 
0

>  <align_rmsd>  (1) 
0.169

$$$$
Z415645016
     RDKit          3D

 10 10  0  0  0  0  0  0  0  0999 V2000
    1.5817   -1.6382   -0.1440 Br  0  0  0  0  0  0  0  0  0  0  0  0
   -0.0590   -0.7049   -0.0158 C   0  0  0  0  0  0  0  0  0  0  0  0
   -0.0592    0.6831    0.0206 C   0  0  0  0  0  0  0  0  0  0  0  0
   -1.1994    1.4140    0.1118 N   0  0  0  0  0  0  0  0  0  0  0  0
   -2.3407    0.6909    0.1650 C   0  0  0  0  0  0  0  0  0  0  0  0
   -2.3421   -0.6943    0.1287 C   0  0  0  0  0  0  0  0  0  0  0  0
   -1.2052   -1.4225    0.0377 N   0  0  0  0  0  0  0  0  0  0  0  0
    0.8593    1.2576   -0.0224 H   0  0  0  0  0  0  0  0  0  0  0  0
   -3.2620    1.2578    0.2381 H   0  0  0  0  0  0  0  0  0  0  0  0
   -3.2660   -1.2603    0.1722 H   0  0  0  0  0  0  0  0  0  0  0  0
  1  2  1  0
  2  3  2  0
  3  4  1  0
  4  5  2  0
  5  6  1  0
  6  7  2  0
  7  2  1  0
  3  8  1  0
  5  9  1  0
  6 10  1  0
M  END
>  <mol_id>  (2) 
Z415645016

>  <drugclip_rank>  (2) 
2

>  <conformer>  (2) 
0

>  <align_rmsd>  (2) 
0.52

$$$$
STK505526
     RDKit          3D

 12 12  0  0  0  0  0  0  0  0999 V2000
   -3.3869   -0.3637    0.2014 Br  0  0  0  0  0  0  0  0  0  0  0  0
   -1.4940   -0.4894    0.0802 C   0  0  0  0  0  0  0  0  0  0  0  0
   -0.9634   -1.7320    0.0146 N   0  0  0  0  0  0  0  0  0  0  0  0
    0.3828   -1.8110   -0.0713 C   0  0  0  0  0  0  0  0  0  0  0  0
    1.2233   -0.7078   -0.0947 C   0  0  0  0  0  0  0  0  0  0  0  0
    0.6532    0.5597   -0.0260 C   0  0  0  0  0  0  0  0  0  0  0  0
   -0.7273    0.6750    0.0630 C   0  0  0  0  0  0  0  0  0  0  0  0
   -1.2509    1.9351    0.1287 O   0  0  0  0  0  0  0  0  0  0  0  0
    0.7843   -2.8197   -0.1228 H   0  0  0  0  0  0  0  0  0  0  0  0
    2.2984   -0.8326   -0.1650 H   0  0  0  0  0  0  0  0  0  0  0  0
    1.2775    1.4481   -0.0415 H   0  0  0  0  0  0  0  0  0  0  0  0
   -2.2207    1.8514    0.1869 H   0  0  0  0  0  0  0  0  0  0  0  0
  1  2  1  0
  2  3  2  0
  3  4  1  0
  4  5  2  0
  5  6  1  0
  6  7  2  0
  7  8  1  0
  7  2  1  0
  4  9  1  0
  5 10  1  0
  6 11  1  0
  8 12  1  0
M  END
>  <mol_id>  (3) 
STK505526

>  <drugclip_rank>  (3) 
3

>  <conformer>  (3) 
0

>  <align_rmsd>  (3) 
0.522

$$$$
OSSL_255068
     RDKit          3D

 12 12  0  0  0  0  0  0  0  0999 V2000
   -3.3869   -0.3637    0.2014 Br  0  0  0  0  0  0  0  0  0  0  0  0
   -1.4940   -0.4894    0.0802 C   0  0  0  0  0  0  0  0  0  0  0  0
   -0.9634   -1.7320    0.0146 N   0  0  0  0  0  0  0  0  0  0  0  0
    0.3828   -1.8110   -0.0713 C   0  0  0  0  0  0  0  0  0  0  0  0
    1.2233   -0.7078   -0.0947 C   0  0  0  0  0  0  0  0  0  0  0  0
    0.6532    0.5597   -0.0260 C   0  0  0  0  0  0  0  0  0  0  0  0
   -0.7273    0.6750    0.0630 C   0  0  0  0  0  0  0  0  0  0  0  0
   -1.2509    1.9351    0.1287 O   0  0  0  0  0  0  0  0  0  0  0  0
    0.7843   -2.8197   -0.1228 H   0  0  0  0  0  0  0  0  0  0  0  0
    2.2984   -0.8326   -0.1650 H   0  0  0  0  0  0  0  0  0  0  0  0
    1.2775    1.4481   -0.0415 H   0  0  0  0  0  0  0  0  0  0  0  0
   -2.2207    1.8514    0.1869 H   0  0  0  0  0  0  0  0  0  0  0  0
  1  2  1  0
  2  3  2  0
  3  4  1  0
  4  5  2  0
  5  6  1  0
  6  7  2  0
  7  8  1  0
  7  2  1  0
  4  9  1  0
  5 10  1  0
  6 11  1  0
  8 12  1  0
M  END
>  <mol_id>  (4) 
OSSL_255068

>  <drugclip_rank>  (4) 
4

>  <conformer>  (4) 
0

>  <align_rmsd>  (4) 
0.522

$$$$
Z800213196
     RDKit          3D

 10 10  0  0  0  0  0  0  0  0999 V2000
    1.2598    2.7858   -0.0054 Br  0  0  0  0  0  0  0  0  0  0  0  0
    0.3207    1.1367    0.0098 C   0  0  0  0  0  0  0  0  0  0  0  0
    1.0419   -0.0334   -0.0658 C   0  0  0  0  0  0  0  0  0  0  0  0
    0.2957   -1.1864   -0.0496 C   0  0  0  0  0  0  0  0  0  0  0  0
   -1.0467   -1.1992    0.0337 N   0  0  0  0  0  0  0  0  0  0  0  0
   -1.6411    0.0017    0.1023 C   0  0  0  0  0  0  0  0  0  0  0  0
   -1.0208    1.1872    0.0948 N   0  0  0  0  0  0  0  0  0  0  0  0
    2.1201   -0.0547   -0.1336 H   0  0  0  0  0  0  0  0  0  0  0  0
    0.7675   -2.1634   -0.1046 H   0  0  0  0  0  0  0  0  0  0  0  0
   -2.7235    0.0116    0.1700 H   0  0  0  0  0  0  0  0  0  0  0  0
  1  2  1  0
  2  3  2  0
  3  4  1  0
  4  5  2  0
  5  6  1  0
  6  7  2  0
  7  2  1  0
  3  8  1  0
  4  9  1  0
  6 10  1  0
M  END
>  <mol_id>  (5) 
Z800213196

>  <drugclip_rank>  (5) 
5

>  <conformer>  (5) 
0

>  <align_rmsd>  (5) 
0.17

$$$$
Z1259106172
     RDKit          3D

 10 10  0  0  0  0  0  0  0  0999 V2000
    3.0992   -0.0481   -0.1944 I   0  0  0  0  0  0  0  0  0  0  0  0
    1.0486   -0.0273   -0.0661 C   0  0  0  0  0  0  0  0  0  0  0  0
    0.3285    1.1442    0.0095 C   0  0  0  0  0  0  0  0  0  0  0  0
   -1.0194    1.1892    0.0947 N   0  0  0  0  0  0  0  0  0  0  0  0
   -1.6427   -0.0001    0.1024 C   0  0  0  0  0  0  0  0  0  0  0  0
   -1.0474   -1.2017    0.0337 N   0  0  0  0  0  0  0  0  0  0  0  0
    0.3012   -1.1839   -0.0499 C   0  0  0  0  0  0  0  0  0  0  0  0
    0.8132    2.1163    0.0048 H   0  0  0  0  0  0  0  0  0  0  0  0
   -2.7252    0.0109    0.1701 H   0  0  0  0  0  0  0  0  0  0  0  0
    0.7630   -2.1657   -0.1044 H   0  0  0  0  0  0  0  0  0  0  0  0
  1  2  1  0
  2  3  2  0
  3  4  1  0
  4  5  2  0
  5  6  1  0
  6  7  2  0
  7  2  1  0
  3  8  1  0
  5  9  1  0
  7 10  1  0
M  END
>  <mol_id>  (6) 
Z1259106172

>  <drugclip_rank>  (6) 
12

>  <conformer>  (6) 
0

>  <align_rmsd>  (6) 
0.17

$$$$
Z415645012
     RDKit          3D

 10 10  0  0  0  0  0  0  0  0999 V2000
   -3.5487    0.0191    0.2216 Br  0  0  0  0  0  0  0  0  0  0  0  0
   -1.6545    0.0000    0.1031 C   0  0  0  0  0  0  0  0  0  0  0  0
   -1.0504   -1.1997    0.0340 N   0  0  0  0  0  0  0  0  0  0  0  0
    0.2921   -1.1822   -0.0492 C   0  0  0  0  0  0  0  0  0  0  0  0
    1.0371   -0.0270   -0.0654 C   0  0  0  0  0  0  0  0  0  0  0  0
    0.3192    1.1429    0.0101 C   0  0  0  0  0  0  0  0  0  0  0  0
   -1.0226    1.1873    0.0949 N   0  0  0  0  0  0  0  0  0  0  0  0
    0.7663   -2.1581   -0.1044 H   0  0  0  0  0  0  0  0  0  0  0  0
    2.1159   -0.0379   -0.1329 H   0  0  0  0  0  0  0  0  0  0  0  0
    0.8160    2.1089    0.0045 H   0  0  0  0  0  0  0  0  0  0  0  0
  1  2  1  0
  2  3  2  0
  3  4  1  0
  4  5  2  0
  5  6  1  0
  6  7  2  0
  7  2  1  0
  4  8  1  0
  5  9  1  0
  6 10  1  0
M  END
>  <mol_id>  (7) 
Z415645012

>  <drugclip_rank>  (7) 
15

>  <conformer>  (7) 
0

>  <align_rmsd>  (7) 
0.167

$$$$
Z997724396
     RDKit          3D

 11 11  0  0  0  0  0  0  0  0999 V2000
   -1.2378    1.9131    0.1273 F   0  0  0  0  0  0  0  0  0  0  0  0
   -0.6992    0.6871    0.0616 C   0  0  0  0  0  0  0  0  0  0  0  0
    0.6809    0.5567   -0.0278 C   0  0  0  0  0  0  0  0  0  0  0  0
    1.2368   -0.7173   -0.0958 C   0  0  0  0  0  0  0  0  0  0  0  0
    0.3823   -1.8103   -0.0713 C   0  0  0  0  0  0  0  0  0  0  0  0
   -0.9631   -1.7126    0.0151 N   0  0  0  0  0  0  0  0  0  0  0  0
   -1.4813   -0.4606    0.0802 C   0  0  0  0  0  0  0  0  0  0  0  0
   -3.3684   -0.3059    0.2018 Br  0  0  0  0  0  0  0  0  0  0  0  0
    1.3077    1.4423   -0.0436 H   0  0  0  0  0  0  0  0  0  0  0  0
    2.3105   -0.8565   -0.1664 H   0  0  0  0  0  0  0  0  0  0  0  0
    0.7698   -2.8248   -0.1220 H   0  0  0  0  0  0  0  0  0  0  0  0
  1  2  1  0
  2  3  2  0
  3  4  1  0
  4  5  2  0
  5  6  1  0
  6  7  2  0
  7  8  1  0
  7  2  1  0
  3  9  1  0
  4 10  1  0
  5 11  1  0
M  END
>  <mol_id>  (8) 
Z997724396

>  <drugclip_rank>  (8) 
16

>  <conformer>  (8) 
0

>  <align_rmsd>  (8) 
0.503

$$$$
Z1235940810
     RDKit          3D

 10 10  0  0  0  0  0  0  0  0999 V2000
    1.7410   -1.7396   -0.1360 I   0  0  0  0  0  0  0  0  0  0  0  0
   -0.0579   -0.7047   -0.0078 C   0  0  0  0  0  0  0  0  0  0  0  0
   -0.0578    0.6834    0.0286 C   0  0  0  0  0  0  0  0  0  0  0  0
   -1.1992    1.4135    0.1118 N   0  0  0  0  0  0  0  0  0  0  0  0
   -2.3409    0.6908    0.1569 C   0  0  0  0  0  0  0  0  0  0  0  0
   -2.3427   -0.6940    0.1207 C   0  0  0  0  0  0  0  0  0  0  0  0
   -1.2051   -1.4220    0.0378 N   0  0  0  0  0  0  0  0  0  0  0  0
    0.8582    1.2625   -0.0077 H   0  0  0  0  0  0  0  0  0  0  0  0
   -3.2624    1.2581    0.2235 H   0  0  0  0  0  0  0  0  0  0  0  0
   -3.2668   -1.2600    0.1577 H   0  0  0  0  0  0  0  0  0  0  0  0
  1  2  1  0
  2  3  2  0
  3  4  1  0
  4  5  2  0
  5  6  1  0
  6  7  2  0
  7  2  1  0
  3  8  1  0
  5  9  1  0
  6 10  1  0
M  END
>  <mol_id>  (9) 
Z1235940810

>  <drugclip_rank>  (9) 
19

>  <conformer>  (9) 
0

>  <align_rmsd>  (9) 
0.52

$$$$
Z425821176
     RDKit          3D

 10 10  0  0  0  0  0  0  0  0999 V2000
    0.1218   -3.2801   -0.0938 Br  0  0  0  0  0  0  0  0  0  0  0  0
    0.2091   -1.3901   -0.0496 C   0  0  0  0  0  0  0  0  0  0  0  0
    1.4415   -0.7636   -0.1099 C   0  0  0  0  0  0  0  0  0  0  0  0
    1.4762    0.6255   -0.0756 C   0  0  0  0  0  0  0  0  0  0  0  0
    0.2775    1.3060    0.0170 C   0  0  0  0  0  0  0  0  0  0  0  0
   -0.9103    0.6717    0.0744 N   0  0  0  0  0  0  0  0  0  0  0  0
   -0.9439   -0.6946    0.0406 N   0  0  0  0  0  0  0  0  0  0  0  0
    2.3600   -1.3351   -0.1821 H   0  0  0  0  0  0  0  0  0  0  0  0
    2.4165    1.1635   -0.1200 H   0  0  0  0  0  0  0  0  0  0  0  0
    0.2310    2.3886    0.0483 H   0  0  0  0  0  0  0  0  0  0  0  0
  1  2  1  0
  2  3  2  0
  3  4  1  0
  4  5  2  0
  5  6  1  0
  6  7  2  0
  7  2  1  0
  3  8  1  0
  4  9  1  0
  5 10  1  0
M  END
>  <mol_id>  (10) 
Z425821176

>  <drugclip_rank>  (10) 
20

>  <conformer>  (10) 
0

>  <align_rmsd>  (10) 
0.974

$$$$
Z1198182209
     RDKit          3D

 10 10  0  0  0  0  0  0  0  0999 V2000
   -3.7885   -1.6029    0.1624 Cl  0  0  0  0  0  0  0  0  0  0  0  0
   -2.3373   -0.6965    0.1135 C   0  0  0  0  0  0  0  0  0  0  0  0
   -2.3433    0.6897    0.1501 C   0  0  0  0  0  0  0  0  0  0  0  0
   -1.2003    1.4184    0.1120 N   0  0  0  0  0  0  0  0  0  0  0  0
   -0.0597    0.6861    0.0356 C   0  0  0  0  0  0  0  0  0  0  0  0
   -0.0620   -0.7045   -0.0007 C   0  0  0  0  0  0  0  0  0  0  0  0
    1.5826   -1.6351   -0.1074 Br  0  0  0  0  0  0  0  0  0  0  0  0
   -1.2046   -1.4269    0.0376 N   0  0  0  0  0  0  0  0  0  0  0  0
   -3.2655    1.2563    0.2111 H   0  0  0  0  0  0  0  0  0  0  0  0
    0.8609    1.2591    0.0045 H   0  0  0  0  0  0  0  0  0  0  0  0
  1  2  1  0
  2  3  2  0
  3  4  1  0
  4  5  2  0
  5  6  1  0
  6  7  1  0
  6  8  2  0
  8  2  1  0
  3  9  1  0
  5 10  1  0
M  END
>  <mol_id>  (11) 
Z1198182209

>  <drugclip_rank>  (11) 
21

>  <conformer>  (11) 
0

>  <align_rmsd>  (11) 
0.521

$$$$
Z1255438320
     RDKit          3D

 10 10  0  0  0  0  0  0  0  0999 V2000
    2.7710    0.0460   -0.1715 Cl  0  0  0  0  0  0  0  0  0  0  0  0
    1.0590   -0.0243   -0.0666 C   0  0  0  0  0  0  0  0  0  0  0  0
    0.3282    1.1414    0.0095 C   0  0  0  0  0  0  0  0  0  0  0  0
   -1.0194    1.1848    0.0946 N   0  0  0  0  0  0  0  0  0  0  0  0
   -1.6423   -0.0021    0.1023 C   0  0  0  0  0  0  0  0  0  0  0  0
   -1.0451   -1.1981    0.0337 N   0  0  0  0  0  0  0  0  0  0  0  0
    0.3065   -1.1842   -0.0502 C   0  0  0  0  0  0  0  0  0  0  0  0
    1.1286   -2.9014   -0.1465 Br  0  0  0  0  0  0  0  0  0  0  0  0
    0.8145    2.1134    0.0047 H   0  0  0  0  0  0  0  0  0  0  0  0
   -2.7251    0.0077    0.1700 H   0  0  0  0  0  0  0  0  0  0  0  0
  1  2  1  0
  2  3  2  0
  3  4  1  0
  4  5  2  0
  5  6  1  0
  6  7  2  0
  7  8  1  0
  7  2  1  0
  3  9  1  0
  5 10  1  0
M  END
>  <mol_id>  (12) 
Z1255438320

>  <drugclip_rank>  (12) 
22

>  <conformer>  (12) 
0

>  <align_rmsd>  (12) 
0.175

$$$$
Z1255362476
     RDKit          3D

 10 10  0  0  0  0  0  0  0  0999 V2000
    1.3588    1.6682   -0.0413 Cl  0  0  0  0  0  0  0  0  0  0  0  0
   -0.0523    0.6888    0.0211 C   0  0  0  0  0  0  0  0  0  0  0  0
   -1.1975    1.4131    0.1117 N   0  0  0  0  0  0  0  0  0  0  0  0
   -2.3374    0.6886    0.1639 C   0  0  0  0  0  0  0  0  0  0  0  0
   -2.3401   -0.6958    0.1277 C   0  0  0  0  0  0  0  0  0  0  0  0
   -1.2021   -1.4218    0.0376 N   0  0  0  0  0  0  0  0  0  0  0  0
   -0.0466   -0.7051   -0.0158 C   0  0  0  0  0  0  0  0  0  0  0  0
    1.5589   -1.7126   -0.1426 Br  0  0  0  0  0  0  0  0  0  0  0  0
   -3.2592    1.2559    0.2364 H   0  0  0  0  0  0  0  0  0  0  0  0
   -3.2640   -1.2627    0.1706 H   0  0  0  0  0  0  0  0  0  0  0  0
  1  2  1  0
  2  3  2  0
  3  4  1  0
  4  5  2  0
  5  6  1  0
  6  7  2  0
  7  8  1  0
  7  2  1  0
  4  9  1  0
  5 10  1  0
M  END
>  <mol_id>  (13) 
Z1255362476

>  <drugclip_rank>  (13) 
24

>  <conformer>  (13) 
0

>  <align_rmsd>  (13) 
0.516

$$$$
Z1269153298
     RDKit          3D

 11 11  0  0  0  0  0  0  0  0999 V2000
   -1.2261    1.9039    0.1264 F   0  0  0  0  0  0  0  0  0  0  0  0
   -0.6562    0.6927    0.0591 C   0  0  0  0  0  0  0  0  0  0  0  0
   -1.4475   -0.4408    0.0786 C   0  0  0  0  0  0  0  0  0  0  0  0
   -0.9567   -1.7018    0.0149 N   0  0  0  0  0  0  0  0  0  0  0  0
    0.3866   -1.8260   -0.0720 C   0  0  0  0  0  0  0  0  0  0  0  0
    1.2608   -0.7502   -0.0982 C   0  0  0  0  0  0  0  0  0  0  0  0
    0.7203    0.5318   -0.0309 C   0  0  0  0  0  0  0  0  0  0  0  0
    1.9864    2.1794   -0.0665 I   0  0  0  0  0  0  0  0  0  0  0  0
   -2.5273   -0.3593    0.1480 H   0  0  0  0  0  0  0  0  0  0  0  0
    0.7544   -2.8477   -0.1217 H   0  0  0  0  0  0  0  0  0  0  0  0
    2.3292   -0.9217   -0.1693 H   0  0  0  0  0  0  0  0  0  0  0  0
  1  2  1  0
  2  3  2  0
  3  4  1  0
  4  5  2  0
  5  6  1  0
  6  7  2  0
  7  8  1  0
  7  2  1  0
  3  9  1  0
  5 10  1  0
  6 11  1  0
M  END
>  <mol_id>  (14) 
Z1269153298

>  <drugclip_rank>  (14) 
27

>  <conformer>  (14) 
0

>  <align_rmsd>  (14) 
0.496

$$$$
Z1198179757
     RDKit          3D

 10 10  0  0  0  0  0  0  0  0999 V2000
   -3.7826    1.6035    0.2709 Cl  0  0  0  0  0  0  0  0  0  0  0  0
   -2.3384    0.6939    0.1609 C   0  0  0  0  0  0  0  0  0  0  0  0
   -2.3453   -0.6918    0.1249 C   0  0  0  0  0  0  0  0  0  0  0  0
   -1.2059   -1.4258    0.0377 N   0  0  0  0  0  0  0  0  0  0  0  0
   -0.0585   -0.7084   -0.0119 C   0  0  0  0  0  0  0  0  0  0  0  0
    1.5823   -1.6405   -0.1343 Br  0  0  0  0  0  0  0  0  0  0  0  0
   -0.0603    0.6818    0.0247 C   0  0  0  0  0  0  0  0  0  0  0  0
   -1.1990    1.4172    0.1119 N   0  0  0  0  0  0  0  0  0  0  0  0
   -3.2688   -1.2582    0.1651 H   0  0  0  0  0  0  0  0  0  0  0  0
    0.8597    1.2554   -0.0152 H   0  0  0  0  0  0  0  0  0  0  0  0
  1  2  1  0
  2  3  2  0
  3  4  1  0
  4  5  2  0
  5  6  1  0
  5  7  1  0
  7  8  2  0
  8  2  1  0
  3  9  1  0
  7 10  1  0
M  END
>  <mol_id>  (15) 
Z1198179757

>  <drugclip_rank>  (15) 
30

>  <conformer>  (15) 
0

>  <align_rmsd>  (15) 
0.521

$$$$
Z1079255426
     RDKit          3D

 10 10  0  0  0  0  0  0  0  0999 V2000
    1.0466    2.6955    0.0055 Cl  0  0  0  0  0  0  0  0  0  0  0  0
    0.3249    1.1316    0.0094 C   0  0  0  0  0  0  0  0  0  0  0  0
   -1.0212    1.1854    0.0947 N   0  0  0  0  0  0  0  0  0  0  0  0
   -1.6432    0.0019    0.1024 C   0  0  0  0  0  0  0  0  0  0  0  0
   -1.0460   -1.1974    0.0337 N   0  0  0  0  0  0  0  0  0  0  0  0
    0.3022   -1.1850   -0.0500 C   0  0  0  0  0  0  0  0  0  0  0  0
    1.0564   -0.0346   -0.0668 C   0  0  0  0  0  0  0  0  0  0  0  0
    2.9333   -0.1308   -0.1862 Br  0  0  0  0  0  0  0  0  0  0  0  0
   -2.7261    0.0114    0.1702 H   0  0  0  0  0  0  0  0  0  0  0  0
    0.7618   -2.1685   -0.1044 H   0  0  0  0  0  0  0  0  0  0  0  0
  1  2  1  0
  2  3  2  0
  3  4  1  0
  4  5  2  0
  5  6  1  0
  6  7  2  0
  7  8  1  0
  7  2  1  0
  4  9  1  0
  6 10  1  0
M  END
>  <mol_id>  (16) 
Z1079255426

>  <drugclip_rank>  (16) 
32

>  <conformer>  (16) 
0

>  <align_rmsd>  (16) 
0.173

$$$$
Z56785971
     RDKit          3D

 40 42  0  0  0  0  0  0  0  0999 V2000
    4.6133    5.4430    2.7297 C   0  0  0  0  0  0  0  0  0  0  0  0
    5.5055    6.5135    2.8587 C   0  0  0  0  0  0  0  0  0  0  0  0
    5.2258    7.7515    2.2648 C   0  0  0  0  0  0  0  0  0  0  0  0
    6.2006    8.8865    2.3754 C   0  0  0  0  0  0  0  0  0  0  0  0
    4.0510    7.8959    1.5184 C   0  0  0  0  0  0  0  0  0  0  0  0
    3.1683    6.8170    1.3987 C   0  0  0  0  0  0  0  0  0  0  0  0
    3.4339    5.5852    1.9990 C   0  0  0  0  0  0  0  0  0  0  0  0
    1.9205    6.9361    0.6292 C   0  0  0  0  0  0  0  0  0  0  0  0
    1.5968    7.9672    0.0531 O   0  0  0  0  0  0  0  0  0  0  0  0
    1.1315    5.8131    0.5962 N   0  0  0  0  0  0  0  0  0  0  0  0
    1.4700    4.6311    1.2123 C   0  0  0  0  0  0  0  0  0  0  0  0
    2.5642    4.4867    1.8914 N   0  0  0  0  0  0  0  0  0  0  0  0
    0.4936    3.4825    1.0499 C   0  0  0  0  0  0  0  0  0  0  0  0
    0.2670    2.8401    2.3531 C   0  0  0  0  0  0  0  0  0  0  0  0
    0.0634    2.2707    3.3445 N   0  0  0  0  0  0  0  0  0  0  0  0
    0.9827    2.4734    0.0280 C   0  0  0  0  0  0  0  0  0  0  0  0
    1.7969    2.7420   -0.8525 O   0  0  0  0  0  0  0  0  0  0  0  0
    0.3312    1.1403    0.0204 C   0  0  0  0  0  0  0  0  0  0  0  0
   -1.0203    1.1996    0.0934 N   0  0  0  0  0  0  0  0  0  0  0  0
   -1.6316    0.0007    0.0850 C   0  0  0  0  0  0  0  0  0  0  0  0
   -3.4154    0.0318    0.1750 S   0  0  0  0  0  0  0  0  0  0  0  0
   -3.7946    1.0265    1.1653 O   0  0  0  0  0  0  0  0  0  0  0  0
   -3.9236    0.1033   -1.1845 O   0  0  0  0  0  0  0  0  0  0  0  0
   -3.8471   -1.5536    0.8396 C   0  0  0  0  0  0  0  0  0  0  0  0
   -1.0470   -1.2114    0.0310 N   0  0  0  0  0  0  0  0  0  0  0  0
    0.3042   -1.1885   -0.0417 C   0  0  0  0  0  0  0  0  0  0  0  0
    1.0616   -0.0330   -0.0534 C   0  0  0  0  0  0  0  0  0  0  0  0
    2.7717   -0.1304   -0.0849 Cl  0  0  0  0  0  0  0  0  0  0  0  0
    4.8414    4.4897    3.1999 H   0  0  0  0  0  0  0  0  0  0  0  0
    6.4222    6.3719    3.4281 H   0  0  0  0  0  0  0  0  0  0  0  0
    5.6822    9.8506    2.3448 H   0  0  0  0  0  0  0  0  0  0  0  0
    6.7463    8.8413    3.3238 H   0  0  0  0  0  0  0  0  0  0  0  0
    6.9190    8.8442    1.5510 H   0  0  0  0  0  0  0  0  0  0  0  0
    3.8186    8.8406    1.0308 H   0  0  0  0  0  0  0  0  0  0  0  0
    0.2956    5.9093    0.0356 H   0  0  0  0  0  0  0  0  0  0  0  0
   -0.4557    3.8829    0.6721 H   0  0  0  0  0  0  0  0  0  0  0  0
   -3.5395   -2.3354    0.1428 H   0  0  0  0  0  0  0  0  0  0  0  0
   -4.9321   -1.5821    0.9643 H   0  0  0  0  0  0  0  0  0  0  0  0
   -3.3624   -1.6794    1.8097 H   0  0  0  0  0  0  0  0  0  0  0  0
    0.7762   -2.1682   -0.0835 H   0  0  0  0  0  0  0  0  0  0  0  0
  1  2  2  0
  2  3  1  0
  3  4  1  0
  3  5  2  0
  5  6  1  0
  6  7  2  0
  6  8  1  0
  8  9  2  0
  8 10  1  0
 10 11  1  0
 11 12  2  0
 11 13  1  0
 13 14  1  0
 14 15  3  0
 13 16  1  0
 16 17  2  0
 16 18  1  0
 18 19  2  0
 19 20  1  0
 20 21  1  0
 21 22  2  0
 21 23  2  0
 21 24  1  0
 20 25  2  0
 25 26  1  0
 26 27  2  0
 27 28  1  0
  7  1  1  0
 12  7  1  0
 27 18  1  0
  1 29  1  0
  2 30  1  0
  4 31  1  0
  4 32  1  0
  4 33  1  0
  5 34  1  0
 10 35  1  0
 13 36  1  0
 24 37  1  0
 24 38  1  0
 24 39  1  0
 26 40  1  0
M  END
>  <mol_id>  (17) 
Z56785971

>  <drugclip_rank>  (17) 
34

>  <conformer>  (17) 
11

>  <align_rmsd>  (17) 
0.164

$$$$
Z1238548161
     RDKit          3D

 11 11  0  0  0  0  0  0  0  0999 V2000
   -1.2571    1.1288    0.1079 F   0  0  0  0  0  0  0  0  0  0  0  0
   -0.3315    0.1597    0.0249 C   0  0  0  0  0  0  0  0  0  0  0  0
   -0.7920   -1.1134    0.0201 N   0  0  0  0  0  0  0  0  0  0  0  0
    0.1343   -2.0914   -0.0632 C   0  0  0  0  0  0  0  0  0  0  0  0
    1.4986   -1.8567   -0.1421 C   0  0  0  0  0  0  0  0  0  0  0  0
    1.9466   -0.5376   -0.1353 C   0  0  0  0  0  0  0  0  0  0  0  0
    1.0150    0.4947   -0.0502 C   0  0  0  0  0  0  0  0  0  0  0  0
    1.6523    2.4671   -0.0382 I   0  0  0  0  0  0  0  0  0  0  0  0
   -0.2606   -3.1041   -0.0652 H   0  0  0  0  0  0  0  0  0  0  0  0
    2.1979   -2.6839   -0.2073 H   0  0  0  0  0  0  0  0  0  0  0  0
    3.0120   -0.3324   -0.1963 H   0  0  0  0  0  0  0  0  0  0  0  0
  1  2  1  0
  2  3  2  0
  3  4  1  0
  4  5  2  0
  5  6  1  0
  6  7  2  0
  7  8  1  0
  7  2  1  0
  4  9  1  0
  5 10  1  0
  6 11  1  0
M  END
>  <mol_id>  (18) 
Z1238548161

>  <drugclip_rank>  (18) 
37

>  <conformer>  (18) 
0

>  <align_rmsd>  (18) 
0.888

$$$$
Z1746259343
     RDKit          3D

 37 38  0  0  0  0  0  0  0  0999 V2000
    7.9333    3.7259    2.2341 C   0  0  0  0  0  0  0  0  0  0  0  0
    8.9057    2.8812    1.6306 O   0  0  0  0  0  0  0  0  0  0  0  0
    8.4499    1.8408    0.8592 C   0  0  0  0  0  0  0  0  0  0  0  0
    9.4524    1.0969    0.2292 C   0  0  0  0  0  0  0  0  0  0  0  0
    9.1250    0.0144   -0.5910 C   0  0  0  0  0  0  0  0  0  0  0  0
    7.7876   -0.3387   -0.7823 C   0  0  0  0  0  0  0  0  0  0  0  0
    6.7711    0.3845   -0.1490 C   0  0  0  0  0  0  0  0  0  0  0  0
    7.1133    1.4777    0.6723 C   0  0  0  0  0  0  0  0  0  0  0  0
    5.3956    0.0874   -0.2651 N   0  0  0  0  0  0  0  0  0  0  0  0
    4.7986   -0.9022   -1.0279 C   0  0  0  0  0  0  0  0  0  0  0  0
    5.4112   -1.6823   -1.7617 O   0  0  0  0  0  0  0  0  0  0  0  0
    3.2835   -1.0594   -0.8864 C   0  0  0  0  0  0  0  0  0  0  0  0
    2.7015   -1.2040   -2.2302 C   0  0  0  0  0  0  0  0  0  0  0  0
    2.1436   -1.3275   -3.2468 N   0  0  0  0  0  0  0  0  0  0  0  0
    2.5228    0.0078   -0.1109 C   0  0  0  0  0  0  0  0  0  0  0  0
    3.0826    0.9170    0.5053 O   0  0  0  0  0  0  0  0  0  0  0  0
    1.0441   -0.0320   -0.0407 C   0  0  0  0  0  0  0  0  0  0  0  0
    0.2956   -1.1942   -0.0274 C   0  0  0  0  0  0  0  0  0  0  0  0
   -1.0566   -1.1995    0.0266 N   0  0  0  0  0  0  0  0  0  0  0  0
   -1.6974    0.0038    0.0575 C   0  0  0  0  0  0  0  0  0  0  0  0
   -3.2373    0.0377    0.0756 C   0  0  0  0  0  0  0  0  0  0  0  0
   -3.7525    0.5009    1.2598 F   0  0  0  0  0  0  0  0  0  0  0  0
   -3.8147   -1.1909   -0.1188 F   0  0  0  0  0  0  0  0  0  0  0  0
   -3.7643    0.8468   -0.8985 F   0  0  0  0  0  0  0  0  0  0  0  0
   -1.0308    1.1880    0.0933 N   0  0  0  0  0  0  0  0  0  0  0  0
    0.3210    1.1426    0.0512 C   0  0  0  0  0  0  0  0  0  0  0  0
    8.4643    4.5533    2.7242 H   0  0  0  0  0  0  0  0  0  0  0  0
    7.2548    4.1664    1.4905 H   0  0  0  0  0  0  0  0  0  0  0  0
    7.3792    3.1890    3.0060 H   0  0  0  0  0  0  0  0  0  0  0  0
   10.4952    1.3673    0.3769 H   0  0  0  0  0  0  0  0  0  0  0  0
    9.9094   -0.5593   -1.0774 H   0  0  0  0  0  0  0  0  0  0  0  0
    7.5819   -1.1899   -1.4223 H   0  0  0  0  0  0  0  0  0  0  0  0
    6.3219    2.0453    1.1557 H   0  0  0  0  0  0  0  0  0  0  0  0
    4.7761    0.6891    0.2877 H   0  0  0  0  0  0  0  0  0  0  0  0
    3.1539   -2.0001   -0.3311 H   0  0  0  0  0  0  0  0  0  0  0  0
    0.7427   -2.1883   -0.0346 H   0  0  0  0  0  0  0  0  0  0  0  0
    0.8106    2.1159    0.0823 H   0  0  0  0  0  0  0  0  0  0  0  0
  1  2  1  0
  2  3  1  0
  3  4  2  0
  4  5  1  0
  5  6  2  0
  6  7  1  0
  7  8  2  0
  7  9  1  0
  9 10  1  0
 10 11  2  0
 10 12  1  0
 12 13  1  0
 13 14  3  0
 12 15  1  0
 15 16  2  0
 15 17  1  0
 17 18  2  0
 18 19  1  0
 19 20  2  0
 20 21  1  0
 21 22  1  0
 21 23  1  0
 21 24  1  0
 20 25  1  0
 25 26  2  0
  8  3  1  0
 26 17  1  0
  1 27  1  0
  1 28  1  0
  1 29  1  0
  4 30  1  0
  5 31  1  0
  6 32  1  0
  8 33  1  0
  9 34  1  0
 12 35  1  0
 18 36  1  0
 26 37  1  0
M  END
>  <mol_id>  (19) 
Z1746259343

>  <drugclip_rank>  (19) 
40

>  <conformer>  (19) 
37

>  <align_rmsd>  (19) 
0.159

$$$$
Z104527752
     RDKit          3D

 46 49  0  0  0  0  0  0  0  0999 V2000
    3.9722    6.1781    2.6049 C   0  0  0  0  0  0  0  0  0  0  0  0
    4.7851    7.3168    2.6412 C   0  0  0  0  0  0  0  0  0  0  0  0
    4.5955    8.3587    1.7235 C   0  0  0  0  0  0  0  0  0  0  0  0
    5.4477    9.5917    1.7852 C   0  0  0  0  0  0  0  0  0  0  0  0
    3.5633    8.2562    0.7843 C   0  0  0  0  0  0  0  0  0  0  0  0
    2.7581    7.1122    0.7608 C   0  0  0  0  0  0  0  0  0  0  0  0
    2.9511    6.0637    1.6617 C   0  0  0  0  0  0  0  0  0  0  0  0
    1.6688    6.9678   -0.2167 C   0  0  0  0  0  0  0  0  0  0  0  0
    1.4183    7.8230   -1.0569 O   0  0  0  0  0  0  0  0  0  0  0  0
    0.9395    5.8081   -0.1286 N   0  0  0  0  0  0  0  0  0  0  0  0
    1.2009    4.8147    0.7869 C   0  0  0  0  0  0  0  0  0  0  0  0
    2.1565    4.9050    1.6576 N   0  0  0  0  0  0  0  0  0  0  0  0
    0.3085    3.5884    0.7193 C   0  0  0  0  0  0  0  0  0  0  0  0
   -0.0471    3.1586    2.0798 C   0  0  0  0  0  0  0  0  0  0  0  0
   -0.3692    2.7925    3.1340 N   0  0  0  0  0  0  0  0  0  0  0  0
    0.9557    2.4695   -0.0741 C   0  0  0  0  0  0  0  0  0  0  0  0
    1.8879    2.6671   -0.8518 O   0  0  0  0  0  0  0  0  0  0  0  0
    0.3272    1.1231   -0.0101 C   0  0  0  0  0  0  0  0  0  0  0  0
   -1.0250    1.1684    0.0966 N   0  0  0  0  0  0  0  0  0  0  0  0
   -1.6819    0.0008    0.1312 C   0  0  0  0  0  0  0  0  0  0  0  0
   -1.0505   -1.1794    0.0388 N   0  0  0  0  0  0  0  0  0  0  0  0
    0.2970   -1.1774   -0.0613 C   0  0  0  0  0  0  0  0  0  0  0  0
    1.0603   -0.0390   -0.0886 C   0  0  0  0  0  0  0  0  0  0  0  0
    2.7675   -0.1530   -0.1557 Cl  0  0  0  0  0  0  0  0  0  0  0  0
   -3.0457    0.0178    0.2359 N   0  0  0  0  0  0  0  0  0  0  0  0
   -3.7302    1.1784    0.7884 C   0  0  0  0  0  0  0  0  0  0  0  0
   -4.9631    0.5922    1.4804 C   0  0  0  0  0  0  0  0  0  0  0  0
   -5.1870   -0.7299    0.7620 C   0  0  0  0  0  0  0  0  0  0  0  0
   -3.7628   -1.2164    0.5128 C   0  0  0  0  0  0  0  0  0  0  0  0
    4.1348    5.3745    3.3189 H   0  0  0  0  0  0  0  0  0  0  0  0
    5.5700    7.3818    3.3922 H   0  0  0  0  0  0  0  0  0  0  0  0
    4.9932   10.3273    2.4559 H   0  0  0  0  0  0  0  0  0  0  0  0
    6.4528    9.3538    2.1490 H   0  0  0  0  0  0  0  0  0  0  0  0
    5.5594   10.0392    0.7920 H   0  0  0  0  0  0  0  0  0  0  0  0
    3.3832    9.0581    0.0711 H   0  0  0  0  0  0  0  0  0  0  0  0
    0.2273    5.7101   -0.8392 H   0  0  0  0  0  0  0  0  0  0  0  0
   -0.6066    3.8675    0.1804 H   0  0  0  0  0  0  0  0  0  0  0  0
    0.7483   -2.1647   -0.1136 H   0  0  0  0  0  0  0  0  0  0  0  0
   -3.1307    1.7407    1.5133 H   0  0  0  0  0  0  0  0  0  0  0  0
   -4.0254    1.8515   -0.0239 H   0  0  0  0  0  0  0  0  0  0  0  0
   -5.8287    1.2583    1.4267 H   0  0  0  0  0  0  0  0  0  0  0  0
   -4.7421    0.4066    2.5387 H   0  0  0  0  0  0  0  0  0  0  0  0
   -5.7769   -1.4389    1.3493 H   0  0  0  0  0  0  0  0  0  0  0  0
   -5.7011   -0.5559   -0.1910 H   0  0  0  0  0  0  0  0  0  0  0  0
   -3.3722   -1.7072    1.4131 H   0  0  0  0  0  0  0  0  0  0  0  0
   -3.7258   -1.9175   -0.3275 H   0  0  0  0  0  0  0  0  0  0  0  0
  1  2  2  0
  2  3  1  0
  3  4  1  0
  3  5  2  0
  5  6  1  0
  6  7  2  0
  6  8  1  0
  8  9  2  0
  8 10  1  0
 10 11  1  0
 11 12  2  0
 11 13  1  0
 13 14  1  0
 14 15  3  0
 13 16  1  0
 16 17  2  0
 16 18  1  0
 18 19  2  0
 19 20  1  0
 20 21  2  0
 21 22  1  0
 22 23  2  0
 23 24  1  0
 20 25  1  0
 25 26  1  0
 26 27  1  0
 27 28  1  0
 28 29  1  0
  7  1  1  0
 12  7  1  0
 23 18  1  0
 29 25  1  0
  1 30  1  0
  2 31  1  0
  4 32  1  0
  4 33  1  0
  4 34  1  0
  5 35  1  0
 10 36  1  0
 13 37  1  0
 22 38  1  0
 26 39  1  0
 26 40  1  0
 27 41  1  0
 27 42  1  0
 28 43  1  0
 28 44  1  0
 29 45  1  0
 29 46  1  0
M  END
>  <mol_id>  (20) 
Z104527752

>  <drugclip_rank>  (20) 
41

>  <conformer>  (20) 
5

>  <align_rmsd>  (20) 
0.18

$$$$
Z56771527
     RDKit          3D

 40 42  0  0  0  0  0  0  0  0999 V2000
    2.4477    0.5390   -4.8973 C   0  0  0  0  0  0  0  0  0  0  0  0
    3.5817    0.5566   -5.7185 C   0  0  0  0  0  0  0  0  0  0  0  0
    4.5764    1.5201   -5.5396 C   0  0  0  0  0  0  0  0  0  0  0  0
    4.4728    2.4975   -4.5417 C   0  0  0  0  0  0  0  0  0  0  0  0
    3.3287    2.4659   -3.7321 C   0  0  0  0  0  0  0  0  0  0  0  0
    2.3259    1.5137   -3.8948 C   0  0  0  0  0  0  0  0  0  0  0  0
    2.8949    3.2421   -2.6782 N   0  0  0  0  0  0  0  0  0  0  0  0
    3.6308    4.3497   -2.0976 C   0  0  0  0  0  0  0  0  0  0  0  0
    1.6527    2.7799   -2.2838 C   0  0  0  0  0  0  0  0  0  0  0  0
    1.3174    1.7073   -2.9829 N   0  0  0  0  0  0  0  0  0  0  0  0
    0.8349    3.3701   -1.1684 C   0  0  0  0  0  0  0  0  0  0  0  0
   -0.5645    3.5769   -1.5828 C   0  0  0  0  0  0  0  0  0  0  0  0
   -1.6641    3.7776   -1.9111 N   0  0  0  0  0  0  0  0  0  0  0  0
    0.9980    2.4560    0.0263 C   0  0  0  0  0  0  0  0  0  0  0  0
    1.7557    2.7391    0.9595 O   0  0  0  0  0  0  0  0  0  0  0  0
    0.3277    1.1316    0.0116 C   0  0  0  0  0  0  0  0  0  0  0  0
   -1.0255    1.1834    0.0883 N   0  0  0  0  0  0  0  0  0  0  0  0
   -1.6664   -0.0027    0.0785 C   0  0  0  0  0  0  0  0  0  0  0  0
   -1.0491   -1.1953    0.0330 N   0  0  0  0  0  0  0  0  0  0  0  0
    0.3039   -1.1836   -0.0281 C   0  0  0  0  0  0  0  0  0  0  0  0
    1.0649   -0.0336   -0.0365 C   0  0  0  0  0  0  0  0  0  0  0  0
    2.7744   -0.1137   -0.1359 Cl  0  0  0  0  0  0  0  0  0  0  0  0
   -3.4430   -0.0466    0.1295 S   0  0  0  0  0  0  0  0  0  0  0  0
   -3.8467    1.6947    0.5519 C   0  0  0  0  0  0  0  0  0  0  0  0
   -3.5681    2.0098    2.0307 C   0  0  0  0  0  0  0  0  0  0  0  0
   -4.3871    1.2263    2.9023 O   0  0  0  0  0  0  0  0  0  0  0  0
    1.6691   -0.2037   -5.0338 H   0  0  0  0  0  0  0  0  0  0  0  0
    3.6863   -0.1885   -6.5027 H   0  0  0  0  0  0  0  0  0  0  0  0
    5.4498    1.5132   -6.1917 H   0  0  0  0  0  0  0  0  0  0  0  0
    5.2510    3.2425   -4.4130 H   0  0  0  0  0  0  0  0  0  0  0  0
    3.2958    5.2704   -2.5809 H   0  0  0  0  0  0  0  0  0  0  0  0
    4.7050    4.1923   -2.2462 H   0  0  0  0  0  0  0  0  0  0  0  0
    3.4424    4.3856   -1.0233 H   0  0  0  0  0  0  0  0  0  0  0  0
    1.2256    4.3559   -0.8736 H   0  0  0  0  0  0  0  0  0  0  0  0
    0.7599   -2.1696   -0.0693 H   0  0  0  0  0  0  0  0  0  0  0  0
   -4.9201    1.8285    0.3497 H   0  0  0  0  0  0  0  0  0  0  0  0
   -3.3040    2.3842   -0.1049 H   0  0  0  0  0  0  0  0  0  0  0  0
   -3.8030    3.0638    2.2306 H   0  0  0  0  0  0  0  0  0  0  0  0
   -2.5190    1.8459    2.3132 H   0  0  0  0  0  0  0  0  0  0  0  0
   -4.2991    0.2950    2.6131 H   0  0  0  0  0  0  0  0  0  0  0  0
  1  2  2  0
  2  3  1  0
  3  4  2  0
  4  5  1  0
  5  6  2  0
  5  7  1  0
  7  8  1  0
  7  9  1  0
  9 10  2  0
  9 11  1  0
 11 12  1  0
 12 13  3  0
 11 14  1  0
 14 15  2  0
 14 16  1  0
 16 17  2  0
 17 18  1  0
 18 19  2  0
 19 20  1  0
 20 21  2  0
 21 22  1  0
 18 23  1  0
 23 24  1  0
 24 25  1  0
 25 26  1  0
  6  1  1  0
 10  6  1  0
 21 16  1  0
  1 27  1  0
  2 28  1  0
  3 29  1  0
  4 30  1  0
  8 31  1  0
  8 32  1  0
  8 33  1  0
 11 34  1  0
 20 35  1  0
 24 36  1  0
 24 37  1  0
 25 38  1  0
 25 39  1  0
 26 40  1  0
M  END
>  <mol_id>  (21) 
Z56771527

>  <drugclip_rank>  (21) 
48

>  <conformer>  (21) 
15

>  <align_rmsd>  (21) 
0.17

$$$$
Z1291126473
     RDKit          3D

 40 42  0  0  0  0  0  0  0  0999 V2000
    1.4086    1.4411   -0.0386 C   0  0  0  0  0  0  0  0  0  0  0  0
    0.1394    0.6910    0.0136 C   0  0  0  0  0  0  0  0  0  0  0  0
   -1.0921    1.1357    0.0969 N   0  0  0  0  0  0  0  0  0  0  0  0
   -1.8312   -0.0340    0.1057 C   0  0  0  0  0  0  0  0  0  0  0  0
   -1.0855   -1.1527    0.0372 N   0  0  0  0  0  0  0  0  0  0  0  0
    0.2211   -0.6733   -0.0245 O   0  0  0  0  0  0  0  0  0  0  0  0
   -3.2884   -0.0340    0.1815 C   0  0  0  0  0  0  0  0  0  0  0  0
   -4.0110   -1.2343    0.1693 C   0  0  0  0  0  0  0  0  0  0  0  0
   -5.4064   -1.2287    0.2294 C   0  0  0  0  0  0  0  0  0  0  0  0
   -6.0993   -0.0228    0.3140 C   0  0  0  0  0  0  0  0  0  0  0  0
   -5.3954    1.1845    0.3538 C   0  0  0  0  0  0  0  0  0  0  0  0
   -3.9937    1.1743    0.2695 C   0  0  0  0  0  0  0  0  0  0  0  0
   -6.0769    2.5086    0.4611 C   0  0  0  0  0  0  0  0  0  0  0  0
   -5.5543    3.4887   -0.0790 O   0  0  0  0  0  0  0  0  0  0  0  0
   -7.4119    2.6664    1.1512 C   0  0  0  0  0  0  0  0  0  0  0  0
   -7.4986    1.8900    2.3932 C   0  0  0  0  0  0  0  0  0  0  0  0
   -7.5275    1.3027    3.3938 N   0  0  0  0  0  0  0  0  0  0  0  0
   -8.5583    2.3981    0.1978 C   0  0  0  0  0  0  0  0  0  0  0  0
   -9.2985    1.4255    0.3287 O   0  0  0  0  0  0  0  0  0  0  0  0
   -8.6551    3.3607   -0.7997 N   0  0  0  0  0  0  0  0  0  0  0  0
   -9.6066    3.4257   -1.8396 C   0  0  0  0  0  0  0  0  0  0  0  0
  -10.5939    2.4620   -2.0619 C   0  0  0  0  0  0  0  0  0  0  0  0
  -11.5000    2.6075   -3.1167 C   0  0  0  0  0  0  0  0  0  0  0  0
  -11.4331    3.7202   -3.9510 C   0  0  0  0  0  0  0  0  0  0  0  0
  -10.4527    4.6867   -3.7388 C   0  0  0  0  0  0  0  0  0  0  0  0
   -9.5408    4.5376   -2.6920 C   0  0  0  0  0  0  0  0  0  0  0  0
    1.8511    1.5154    0.9612 H   0  0  0  0  0  0  0  0  0  0  0  0
    1.2379    2.4532   -0.4169 H   0  0  0  0  0  0  0  0  0  0  0  0
    2.1284    0.9473   -0.7005 H   0  0  0  0  0  0  0  0  0  0  0  0
   -3.4942   -2.1895    0.1088 H   0  0  0  0  0  0  0  0  0  0  0  0
   -5.9545   -2.1685    0.2113 H   0  0  0  0  0  0  0  0  0  0  0  0
   -7.1847   -0.0692    0.3417 H   0  0  0  0  0  0  0  0  0  0  0  0
   -3.4455    2.1170    0.2820 H   0  0  0  0  0  0  0  0  0  0  0  0
   -7.4884    3.7232    1.4531 H   0  0  0  0  0  0  0  0  0  0  0  0
   -7.9516    4.0935   -0.8096 H   0  0  0  0  0  0  0  0  0  0  0  0
  -10.6870    1.5753   -1.4405 H   0  0  0  0  0  0  0  0  0  0  0  0
  -12.2606    1.8463   -3.2819 H   0  0  0  0  0  0  0  0  0  0  0  0
  -12.1444    3.8317   -4.7645 H   0  0  0  0  0  0  0  0  0  0  0  0
  -10.3997    5.5595   -4.3847 H   0  0  0  0  0  0  0  0  0  0  0  0
   -8.7878    5.3114   -2.5500 H   0  0  0  0  0  0  0  0  0  0  0  0
  1  2  1  0
  2  3  2  0
  3  4  1  0
  4  5  2  0
  5  6  1  0
  4  7  1  0
  7  8  2  0
  8  9  1  0
  9 10  2  0
 10 11  1  0
 11 12  2  0
 11 13  1  0
 13 14  2  0
 13 15  1  0
 15 16  1  0
 16 17  3  0
 15 18  1  0
 18 19  2  0
 18 20  1  0
 20 21  1  0
 21 22  2  0
 22 23  1  0
 23 24  2  0
 24 25  1  0
 25 26  2  0
  6  2  1  0
 12  7  1  0
 26 21  1  0
  1 27  1  0
  1 28  1  0
  1 29  1  0
  8 30  1  0
  9 31  1  0
 10 32  1  0
 12 33  1  0
 15 34  1  0
 20 35  1  0
 22 36  1  0
 23 37  1  0
 24 38  1  0
 25 39  1  0
 26 40  1  0
M  END
>  <mol_id>  (22) 
Z1291126473

>  <drugclip_rank>  (22) 
49

>  <conformer>  (22) 
33

>  <align_rmsd>  (22) 
0.225

$$$$
Z56785999
     RDKit          3D

 49 50  0  0  0  0  0  0  0  0999 V2000
    2.1914    3.3850   -1.0719 C   0  0  0  0  0  0  0  0  0  0  0  0
    0.8311    2.9358   -0.8493 N   0  0  0  0  0  0  0  0  0  0  0  0
   -0.2433    3.8729   -1.1056 C   0  0  0  0  0  0  0  0  0  0  0  0
    0.5881    1.7008   -0.2848 C   0  0  0  0  0  0  0  0  0  0  0  0
    1.4350    0.8793    0.0414 O   0  0  0  0  0  0  0  0  0  0  0  0
   -3.9177   -1.6079   -0.2017 C   0  0  0  0  0  0  0  0  0  0  0  0
   -3.4104    0.0301    0.2524 S   0  0  0  0  0  0  0  0  0  0  0  0
   -3.7373    0.2242    1.6552 O   0  0  0  0  0  0  0  0  0  0  0  0
   -3.9228    0.9311   -0.7677 O   0  0  0  0  0  0  0  0  0  0  0  0
   -1.6300   -0.0007    0.1128 C   0  0  0  0  0  0  0  0  0  0  0  0
   -1.0466   -1.2123    0.0342 N   0  0  0  0  0  0  0  0  0  0  0  0
    0.3032   -1.1893   -0.0585 C   0  0  0  0  0  0  0  0  0  0  0  0
    1.0597   -0.0329   -0.0761 C   0  0  0  0  0  0  0  0  0  0  0  0
    2.7609   -0.1256   -0.2582 Cl  0  0  0  0  0  0  0  0  0  0  0  0
    0.3298    1.1407    0.0048 C   0  0  0  0  0  0  0  0  0  0  0  0
   -1.0205    1.2003    0.0970 N   0  0  0  0  0  0  0  0  0  0  0  0
    0.9835    2.4735   -0.0036 C   0  0  0  0  0  0  0  0  0  0  0  0
    1.8990    2.6922    0.7867 O   0  0  0  0  0  0  0  0  0  0  0  0
    0.3876    3.5378   -0.9044 C   0  0  0  0  0  0  0  0  0  0  0  0
    0.0310    2.9702   -2.2133 C   0  0  0  0  0  0  0  0  0  0  0  0
   -0.2684    2.4564   -3.2106 N   0  0  0  0  0  0  0  0  0  0  0  0
    1.3397    4.7050   -1.0870 C   0  0  0  0  0  0  0  0  0  0  0  0
    2.2982    4.6595   -1.9585 N   0  0  0  0  0  0  0  0  0  0  0  0
    1.1350    5.7925   -0.2704 N   0  0  0  0  0  0  0  0  0  0  0  0
    1.9368    6.9070   -0.2795 C   0  0  0  0  0  0  0  0  0  0  0  0
    1.7552    7.8398    0.4938 O   0  0  0  0  0  0  0  0  0  0  0  0
    3.0230    6.9042   -1.2709 C   0  0  0  0  0  0  0  0  0  0  0  0
    3.1523    5.7678   -2.0735 C   0  0  0  0  0  0  0  0  0  0  0  0
    3.8858    7.9970   -1.3997 C   0  0  0  0  0  0  0  0  0  0  0  0
    4.8964    7.9468   -2.3566 C   0  0  0  0  0  0  0  0  0  0  0  0
    6.1907    9.5581   -2.5767 I   0  0  0  0  0  0  0  0  0  0  0  0
    5.0437    6.8219   -3.1708 C   0  0  0  0  0  0  0  0  0  0  0  0
    4.1725    5.7363   -3.0258 C   0  0  0  0  0  0  0  0  0  0  0  0
    2.9142    2.5823   -0.9028 H   0  0  0  0  0  0  0  0  0  0  0  0
    2.2844    3.7368   -2.1035 H   0  0  0  0  0  0  0  0  0  0  0  0
    2.4062    4.2082   -0.3839 H   0  0  0  0  0  0  0  0  0  0  0  0
   -1.2188    3.4137   -0.9248 H   0  0  0  0  0  0  0  0  0  0  0  0
   -0.1257    4.7344   -0.4420 H   0  0  0  0  0  0  0  0  0  0  0  0
   -0.1878    4.2008   -2.1474 H   0  0  0  0  0  0  0  0  0  0  0  0
   -0.4868    1.4959   -0.1497 H   0  0  0  0  0  0  0  0  0  0  0  0
   -5.0089   -1.6441   -0.1632 H   0  0  0  0  0  0  0  0  0  0  0  0
   -3.5806   -1.8176   -1.2184 H   0  0  0  0  0  0  0  0  0  0  0  0
   -3.5040   -2.3274    0.5069 H   0  0  0  0  0  0  0  0  0  0  0  0
    0.7738   -2.1688   -0.1287 H   0  0  0  0  0  0  0  0  0  0  0  0
   -0.5186    3.9075   -0.4086 H   0  0  0  0  0  0  0  0  0  0  0  0
    0.4226    5.7995    0.4474 H   0  0  0  0  0  0  0  0  0  0  0  0
    3.7589    8.8661   -0.7576 H   0  0  0  0  0  0  0  0  0  0  0  0
    5.8289    6.7727   -3.9212 H   0  0  0  0  0  0  0  0  0  0  0  0
    4.2879    4.8609   -3.6603 H   0  0  0  0  0  0  0  0  0  0  0  0
  1  2  1  0
  2  3  1  0
  2  4  1  0
  4  5  2  0
  6  7  1  0
  7  8  2  0
  7  9  2  0
  7 10  1  0
 10 11  2  0
 11 12  1  0
 12 13  2  0
 13 14  1  0
 13 15  1  0
 15 16  2  0
 15 17  1  0
 17 18  2  0
 17 19  1  0
 19 20  1  0
 20 21  3  0
 19 22  1  0
 22 23  2  0
 22 24  1  0
 24 25  1  0
 25 26  2  0
 25 27  1  0
 27 28  2  0
 27 29  1  0
 29 30  2  0
 30 31  1  0
 30 32  1  0
 32 33  2  0
 16 10  1  0
 28 23  1  0
 33 28  1  0
  1 34  1  0
  1 35  1  0
  1 36  1  0
  3 37  1  0
  3 38  1  0
  3 39  1  0
  4 40  1  0
  6 41  1  0
  6 42  1  0
  6 43  1  0
 12 44  1  0
 19 45  1  0
 24 46  1  0
 29 47  1  0
 32 48  1  0
 33 49  1  0
M  END
>  <mol_id>  (23) 
Z56785999

>  <drugclip_rank>  (23) 
50

>  <conformer>  (23) 
39

>  <align_rmsd>  (23) 
0.163

$$$$
