Z56785999
     RDKit          3D

 33 34  0  0  0  0  0  0  0  0999 V2000
    2.1914    3.3850   -1.0719 C   0  0  0  0  0  0  0  0  0  0  0  0
    0.8311    2.9358   -0.8493 N   0  0  0  0  0  0  0  0  0  0  0  0
   -0.2433    3.8729   -1.1056 C   0  0  0  0  0  0  0  0  0  0  0  0
    0.5881    1.7008   -0.2848 C   0  0  0  0  0  0  0  0  0  0  0  0
    1.4350    0.8793    0.0414 O   0  0  0  0  0  0  0  0  0  0  0  0
   -3.9177   -1.6079   -0.2017 C   0  0  0  0  0  0  0  0  0  0  0  0
   -3.4104    0.0301    0.2524 S   0  0  0  0  0  0  0  0  0  0  0  0
   -3.7373    0.2242    1.6552 O   0  0  0  0  0  0  0  0  0  0  0  0
   -3.9228    0.9311   -0.7677 O   0  0  0  0  0  0  0  0  0  0  0  0
   -1.6300   -0.0007    0.1128 C   0  0  0  0  0  0  0  0  0  0  0  0
   -1.0466   -1.2123    0.0342 N   0  0  0  0  0  0  0  0  0  0  0  0
    0.3032   -1.1893   -0.0585 C   0  0  0  0  0  0  0  0  0  0  0  0
    1.0597   -0.0329   -0.0761 C   0  0  0  0  0  0  0  0  0  0  0  0
    2.7609   -0.1256   -0.2582 Cl  0  0  0  0  0  0  0  0  0  0  0  0
    0.3298    1.1407    0.0048 C   0  0  0  0  0  0  0  0  0  0  0  0
   -1.0205    1.2003    0.0970 N   0  0  0  0  0  0  0  0  0  0  0  0
    0.9835    2.4735   -0.0036 C   0  0  0  0  0  0  0  0  0  0  0  0
    1.8990    2.6922    0.7867 O   0  0  0  0  0  0  0  0  0  0  0  0
    0.3876    3.5378   -0.9044 C   0  0  2  0  0  0  0  0  0  0  0  0
    0.0310    2.9702   -2.2133 C   0  0  0  0  0  0  0  0  0  0  0  0
   -0.2684    2.4564   -3.2106 N   0  0  0  0  0  0  0  0  0  0  0  0
    1.3397    4.7050   -1.0870 C   0  0  0  0  0  0  0  0  0  0  0  0
    2.2982    4.6595   -1.9585 N   0  0  0  0  0  0  0  0  0  0  0  0
    1.1350    5.7925   -0.2704 N   0  0  0  0  0  0  0  0  0  0  0  0
    1.9368    6.9070   -0.2795 C   0  0  0  0  0  0  0  0  0  0  0  0
    1.7552    7.8398    0.4938 O   0  0  0  0  0  0  0  0  0  0  0  0
    3.0230    6.9042   -1.2709 C   0  0  0  0  0  0  0  0  0  0  0  0
    3.1523    5.7678   -2.0735 C   0  0  0  0  0  0  0  0  0  0  0  0
    3.8858    7.9970   -1.3997 C   0  0  0  0  0  0  0  0  0  0  0  0
    4.8964    7.9468   -2.3566 C   0  0  0  0  0  0  0  0  0  0  0  0
    6.1907    9.5581   -2.5767 I   0  0  0  0  0  0  0  0  0  0  0  0
    5.0437    6.8219   -3.1708 C   0  0  0  0  0  0  0  0  0  0  0  0
    4.1725    5.7363   -3.0258 C   0  0  0  0  0  0  0  0  0  0  0  0
  1  2  1  0
  2  3  1  0
  2  4  1  0
  4  5  2  0
  6  7  1  0
  7  8  2  0
  7  9  2  0
  7 10  1  0
 10 11  2  0
 11 12  1  0
 12 13  2  0
 13 14  1  0
 13 15  1  0
 15 16  2  0
 15 17  1  0
 17 18  2  0
 17 19  1  0
 19 20  1  6
 20 21  3  0
 19 22  1  0
 22 23  2  0
 22 24  1  0
 24 25  1  0
 25 26  2  0
 25 27  1  0
 27 28  2  0
 27 29  1  0
 29 30  2  0
 30 31  1  0
 30 32  1  0
 32 33  2  0
 16 10  1  0
 28 23  1  0
 33 28  1  0
M  END
>  <mol_id>  (1) 
Z56785999

>  <drugclip_rank>  (1) 
50

>  <conformer>  (1) 
39

>  <align_rmsd>  (1) 
0.163

$$$$
