@<TRIPOS>MOLECULE
8A9G_QJK_B303
 35 38 0 0 0
SMALL
GASTEIGER

@<TRIPOS>ATOM
      1 C          26.4170    8.3170   11.6670 C.2     1  UNL1        0.3909
      2 O          33.0400    4.5840    9.7510 O.co2   1  UNL1       -0.5760
      3 C          29.1780    0.2540    5.9010 C.ar    1  UNL1        0.0040
      4 C          29.8260   -0.8770    6.3730 C.ar    1  UNL1        0.0115
      5 C          29.3670   -1.5110    7.5240 C.ar    1  UNL1        0.0577
      6 C          28.2670   -1.0160    8.2060 C.ar    1  UNL1        0.0115
      7 C          27.6220    0.1090    7.7250 C.ar    1  UNL1        0.0040
      8 C          28.0860    0.7900    6.5970 C.ar    1  UNL1        0.0389
      9 C          27.3950    1.9960    6.0610 C.2     1  UNL1        0.1967
     10 C          30.8260    3.8410    9.9020 C.ar    1  UNL1        0.2900
     11 C          30.3470    4.6930    8.9170 C.ar    1  UNL1        0.0750
     12 C          29.0650    4.5120    8.4170 C.ar    1  UNL1        0.0040
     13 C          28.2670    3.4930    8.9090 C.ar    1  UNL1        0.0008
     14 C          25.1440    4.3200   10.9380 C.ar    1  UNL1        0.0182
     15 C          25.9510    6.9380   11.4230 C.ar    1  UNL1        0.1198
     16 C          25.4760    4.8860    7.5100 C.2     1  UNL1        0.2922
     17 C          26.8600    3.3120    8.3830 C.3     1  UNL1        0.1315
     18 C          26.7780    3.0590    6.8850 C.2     1  UNL1        0.0827
     19 C          25.9480    4.0260    6.4060 C.2     1  UNL1        0.2500
     20 O          26.6760    9.0380   10.7280 O.co2   1  UNL1       -0.2404
     21 O          26.5790    8.8000   12.9160 O.co2   1  UNL1       -0.2404
     22 N          32.1940    4.0350   10.4330 N.pl3   1  UNL1        0.0809
     23 O          32.4730    3.6630   11.5560 O.2     1  UNL1        0.0415
     24 O          25.5530    4.1600    5.1170 O.2     1  UNL1       -0.2819
     25 CL         30.1630   -2.9310    8.1270 Cl      1  UNL1       -0.0822
     26 O          27.3240    2.1040    4.8490 O.2     1  UNL1       -0.2867
     27 C          28.7420    2.6530    9.9110 C.ar    1  UNL1        0.0040
     28 C          30.0260    2.8230   10.4070 C.ar    1  UNL1        0.0750
     29 O          25.0880    6.7140   13.6610 O.3     1  UNL1       -0.2863
     30 C          24.9100    4.8820   12.1810 C.ar    1  UNL1        0.0435
     31 C          25.3250    6.1830   12.4360 C.ar    1  UNL1        0.2021
     32 C          26.1960    6.3570   10.1720 C.ar    1  UNL1        0.0247
     33 C          25.7760    5.0550    9.9310 C.ar    1  UNL1        0.0552
     34 O          24.6990    5.8130    7.3760 O.2     1  UNL1       -0.2660
     35 N          26.0030    4.4710    8.6750 N.am    1  UNL1       -0.2462
@<TRIPOS>UNITY_ATOM_ATTR
2 1
charge -1
22 1
charge 1
@<TRIPOS>BOND
     1     4     3   ar
     2     5     4   ar
     3     6     5   ar
     4     7     6   ar
     5     8     7   ar
     6     8     3   ar
     7     9     8    1
     8    11    10   ar
     9    12    11   ar
    10    13    12   ar
    11    15     1    1
    12    17    13    1
    13    18    17    1
    14    18     9    1
    15    19    18    2
    16    19    16    1
    17    20     1   ar
    18    21     1   ar
    19    22    10    1
    20    22     2    1
    21    23    22    2
    22    24    19    1
    23    25     5    1
    24    26     9    2
    25    27    13   ar
    26    28    27   ar
    27    28    10   ar
    28    30    14   ar
    29    31    30   ar
    30    31    29    1
    31    31    15   ar
    32    32    15   ar
    33    33    14   ar
    34    33    32   ar
    35    34    16    2
    36    35    33    1
    37    35    17    1
    38    35    16   am
