8CIC_U30_A1202
     RDKit          3D

 32 35  0  0  0  0  0  0  0  0999 V2000
   -0.8290   95.6100   51.5020 N   0  0  0  0  0  0  0  0  0  0  0  0
    0.6410   97.2190   52.7510 N   0  0  0  0  0  0  0  0  0  0  0  0
   -0.2240   93.2660   51.2380 C   0  0  0  0  0  0  0  0  0  0  0  0
    0.0930   94.6460   51.7550 C   0  0  0  0  0  0  0  0  0  0  0  0
   -0.5060   96.8810   52.0140 C   0  0  0  0  0  0  0  0  0  0  0  0
    1.5010   96.1810   52.9640 C   0  0  0  0  0  0  0  0  0  0  0  0
    2.7170   96.4480   53.7220 C   0  0  0  0  0  0  0  0  0  0  0  0
    5.3350   98.1430   55.6100 C   0  0  0  0  0  0  0  0  0  0  0  0
    4.2090   99.1120   58.9880 C   0  0  0  0  0  0  0  0  0  0  0  0
    3.5360  100.8340   57.4380 C   0  0  0  0  0  0  0  0  0  0  0  0
    1.3170  102.0190   56.9200 C   0  0  0  0  0  0  0  0  0  0  0  0
   -1.5670   92.9030   51.2030 C   0  0  0  0  0  0  0  0  0  0  0  0
   -1.9760   91.6520   50.7620 C   0  0  0  0  0  0  0  0  0  0  0  0
   -1.0490   90.7030   50.3440 C   0  0  0  0  0  0  0  0  0  0  0  0
    2.1350   89.3900   49.6410 N   0  0  0  0  0  0  0  0  0  0  0  0
    1.2980   90.1340   49.9750 C   0  0  0  0  0  0  0  0  0  0  0  0
    3.4620  102.7950   56.1550 O   0  0  0  0  0  0  0  0  0  0  0  0
    0.2930   91.0390   50.3780 C   0  0  0  0  0  0  0  0  0  0  0  0
    4.6990   99.0030   56.6510 C   0  0  0  0  0  0  0  0  0  0  0  0
    4.7720   98.4320   57.9240 C   0  0  0  0  0  0  0  0  0  0  0  0
    3.5790  100.3300   58.7550 C   0  0  0  0  0  0  0  0  0  0  0  0
    2.8310  102.1770   57.2310 C   0  0  2  0  0  0  0  0  0  0  0  0
    2.9810  103.0900   58.4510 C   0  0  0  0  0  0  0  0  0  0  0  0
    1.2380   94.9100   52.5000 C   0  0  0  0  0  0  0  0  0  0  0  0
    0.7290   92.2960   50.8200 C   0  0  0  0  0  0  0  0  0  0  0  0
    2.2030   92.4890   50.7880 C   0  0  0  0  0  0  0  0  0  0  0  0
    3.2450   97.6100   54.2830 C   0  0  0  0  0  0  0  0  0  0  0  0
   -1.4210   97.8860   51.7590 N   0  0  0  0  0  0  0  0  0  0  0  0
    4.4680   97.2090   54.8840 N   0  0  0  0  0  0  0  0  0  0  0  0
    4.0850  100.1730   56.3950 N   0  0  0  0  0  0  0  0  0  0  0  0
    4.6360   95.8740   54.6880 N   0  0  0  0  0  0  0  0  0  0  0  0
    3.6510   95.4210   54.0230 N   0  0  0  0  0  0  0  0  0  0  0  0
  4  3  1  0
  4  1  2  0
  5  2  2  0
  5  1  1  0
  6  2  1  0
  7  6  1  0
 12  3  2  0
 13 12  1  0
 14 13  2  0
 16 15  3  0
 18 16  1  0
 18 14  1  0
 19  8  1  0
 20 19  1  0
 20  9  2  0
 21 10  2  0
 21  9  1  0
 22 17  1  0
 22 11  1  6
 22 10  1  0
 23 22  1  0
 24  6  2  0
 24  4  1  0
 25 18  2  0
 25  3  1  0
 26 25  1  0
 27  7  2  0
 28  5  1  0
 29 27  1  0
 29  8  1  0
 30 19  2  0
 30 10  1  0
 31 29  1  0
 32  7  1  0
 32 31  2  0
M  END
>  <_TriposChargeType>  (1) 
GASTEIGER

$$$$
