@<TRIPOS>MOLECULE
6GT3_F9Q_A2401
 22 24 0 0 0
SMALL
GASTEIGER

@<TRIPOS>ATOM
      1 C           6.2520   95.1370   53.3950 C.3     1  UNL1        0.0521
      2 C           4.8190   94.6760   53.5460 C.ar    1  UNL1        0.0604
      3 C           3.6730   95.5470   53.0880 C.ar    1  UNL1        0.0164
      4 C           2.2870   95.0850   53.2330 C.ar    1  UNL1        0.0244
      5 C           2.0120   93.7780   53.8410 C.ar    1  UNL1        0.0324
      6 C           3.1630   92.9140   54.2890 C.ar    1  UNL1        0.1380
      7 CL          2.8460   91.3620   54.9950 Cl      1  UNL1       -0.0613
      8 N           4.5380   93.3760   54.1380 N.ar    1  UNL1       -0.2383
      9 C           1.1490   95.9700   52.7790 C.ar    1  UNL1        0.1207
     10 C           0.0210   95.4820   51.9410 C.ar    1  UNL1        0.1036
     11 N          -0.9900   96.3670   51.5770 N.ar    1  UNL1       -0.2083
     12 C          -0.9430   97.7260   51.9940 C.ar    1  UNL1        0.2751
     13 N          -1.9760   98.6110   51.6110 N.pl3   1  UNL1       -0.0847
     14 N           0.1570   98.1990   52.8040 N.ar    1  UNL1       -0.1092
     15 N           1.1770   97.3180   53.1810 N.ar    1  UNL1       -0.1436
     16 C          -0.1140   94.0560   51.4590 C.ar    1  UNL1        0.0194
     17 C           1.0680   93.2820   50.9290 C.ar    1  UNL1        0.0039
     18 C           0.8840   91.8590   50.4600 C.ar    1  UNL1        0.0297
     19 C          -0.4870   91.2180   50.4960 C.ar    1  UNL1        0.1401
     20 F          -0.6480   89.9610   50.0750 F       1  UNL1       -0.2042
     21 C          -1.6750   92.0000   51.0160 C.ar    1  UNL1        0.0297
     22 C          -1.4820   93.4190   51.4910 C.ar    1  UNL1        0.0039
@<TRIPOS>BOND
     1     2     1    1
     2     3     2   ar
     3     4     3   ar
     4     5     4   ar
     5     6     5   ar
     6     7     6    1
     7     8     6   ar
     8     8     2   ar
     9     9     4    1
    10    10     9   ar
    11    11    10   ar
    12    12    11   ar
    13    13    12    1
    14    14    12   ar
    15    15     9   ar
    16    15    14   ar
    17    16    10    1
    18    17    16   ar
    19    18    17   ar
    20    19    18   ar
    21    20    19    1
    22    21    19   ar
    23    22    21   ar
    24    22    16   ar
