@<TRIPOS>MOLECULE
1XP9_AIJ_A600
 33 37 0 0 0
SMALL
GASTEIGER

@<TRIPOS>ATOM
      1 C          23.8310  -13.0960    7.1210 C.3     1  UNL1        0.1184
      2 C          25.0220  -12.5450    6.3130 C.3     1  UNL1        0.2023
      3 O          24.7390  -12.7320    4.9050 O.3     1  UNL1       -0.4730
      4 C          23.6190  -12.2320    4.3300 C.ar    1  UNL1        0.1447
      5 C          23.7660  -11.8870    2.9840 C.ar    1  UNL1        0.0407
      6 C          22.6960  -11.3380    2.2910 C.ar    1  UNL1        0.0452
      7 C          21.4580  -11.2360    2.9360 C.ar    1  UNL1        0.1964
      8 O          20.4370  -10.6960    2.2390 O.3     1  UNL1       -0.2866
      9 C          21.3330  -11.5810    4.2830 C.ar    1  UNL1        0.0512
     10 C          22.4220  -12.0190    5.0330 C.ar    1  UNL1        0.0628
     11 S          22.2880  -12.4150    6.5050 S.3     1  UNL1       -0.1029
     12 C          24.1540  -12.8840    8.5820 C.ar    1  UNL1       -0.0081
     13 C          23.6940  -11.8060    9.3590 C.ar    1  UNL1       -0.0000
     14 C          24.0830  -11.7010   10.6900 C.ar    1  UNL1        0.0417
     15 C          24.9150  -12.6840   11.2740 C.ar    1  UNL1        0.1957
     16 O          25.2720  -12.6320   12.5690 O.3     1  UNL1       -0.2866
     17 C          25.3500  -13.7790   10.5130 C.ar    1  UNL1        0.0417
     18 C          24.9600  -13.8670    9.1730 C.ar    1  UNL1       -0.0000
     19 C          25.4420  -11.0910    6.5050 C.ar    1  UNL1        0.0186
     20 C          26.8030  -10.7690    6.4470 C.ar    1  UNL1        0.0023
     21 C          27.2890   -9.4490    6.6000 C.ar    1  UNL1        0.0367
     22 C          26.3960   -8.3860    6.8370 C.ar    1  UNL1        0.1386
     23 C          25.0270   -8.7210    6.8960 C.ar    1  UNL1        0.0367
     24 C          24.5560  -10.0270    6.7280 C.ar    1  UNL1        0.0023
     25 O          26.8010   -7.0880    7.0260 O.3     1  UNL1       -0.4740
     26 C          28.1590   -6.7500    6.6480 C.3     1  UNL1        0.2211
     27 C          28.6430   -5.2740    6.9150 C.3     1  UNL1        0.1016
     28 C          28.2380   -5.1310    8.3650 C.3     1  UNL1        0.0213
     29 N          27.9950   -4.2080    6.0810 N.3     1  UNL1       -0.2708
     30 C          28.0340   -2.7850    6.5810 C.3     1  UNL1        0.0722
     31 C          26.7620   -2.0810    6.0150 C.3     1  UNL1        0.0188
     32 C          26.0500   -3.2080    5.2420 C.3     1  UNL1        0.0188
     33 C          26.5710   -4.4830    5.9250 C.3     1  UNL1        0.0722
@<TRIPOS>BOND
     1     2     1    1
     2     3     2    1
     3     4     3    1
     4     5     4   ar
     5     6     5   ar
     6     7     6   ar
     7     8     7    1
     8     9     7   ar
     9    10     9   ar
    10    10     4   ar
    11    11    10    1
    12    11     1    1
    13     1    12    1
    14    13    12   ar
    15    14    13   ar
    16    15    14   ar
    17    16    15    1
    18    17    15   ar
    19    18    17   ar
    20    18    12   ar
    21     2    19    1
    22    20    19   ar
    23    21    20   ar
    24    22    21   ar
    25    23    22   ar
    26    24    19   ar
    27    24    23   ar
    28    25    22    1
    29    26    25    1
    30    27    26    1
    31    27    28    1
    32    29    27    1
    33    30    29    1
    34    31    30    1
    35    32    31    1
    36    33    32    1
    37    33    29    1
