@<TRIPOS>MOLECULE
2B1Z_17M_B202
 21 24 0 0 0
SMALL
GASTEIGER

@<TRIPOS>ATOM
      1 C          25.1510  -10.3970    9.2180 C.3     1  UNL1        0.0028
      2 C          25.4070  -11.8820    8.8730 C.3     1  UNL1        0.0299
      3 C          26.1820  -12.0550    7.5600 C.3     1  UNL1        0.0073
      4 C          25.3820  -11.5870    6.3160 C.3     1  UNL1        0.0261
      5 C          23.8650  -11.8410    6.3770 C.ar    1  UNL1       -0.0261
      6 C          23.0540  -11.5940    5.2510 C.ar    1  UNL1       -0.0041
      7 C          23.6250  -11.1200    4.0750 C.ar    1  UNL1        0.0030
      8 C          22.8530  -10.8530    2.9420 C.ar    1  UNL1        0.0420
      9 C          21.4720  -11.0810    2.9940 C.ar    1  UNL1        0.1957
     10 O          20.6990  -10.8520    1.8960 O.3     1  UNL1       -0.2866
     11 C          20.8940  -11.5610    4.1680 C.ar    1  UNL1        0.0420
     12 C          21.6800  -11.8190    5.2850 C.ar    1  UNL1        0.0029
     13 C          21.0980  -12.2920    6.4510 C.ar    1  UNL1       -0.0002
     14 C          21.8780  -12.5450    7.5730 C.ar    1  UNL1       -0.0046
     15 C          23.2490  -12.3010    7.5460 C.ar    1  UNL1       -0.0264
     16 C          24.1270  -12.6710    8.7680 C.3     1  UNL1        0.0244
     17 C          23.5310  -12.5880   10.1730 C.3     1  UNL1        0.0069
     18 C          24.8080  -12.8700   11.0160 C.3     1  UNL1        0.0308
     19 C          26.0220  -12.6290   10.0750 C.3     1  UNL1        0.1269
     20 C          27.0890  -11.7830   10.7460 C.3     1  UNL1        0.0329
     21 O          26.5960  -13.9040    9.6900 O.3     1  UNL1       -0.2257
@<TRIPOS>BOND
     1     2     1    1
     2     3     2    1
     3     4     3    1
     4     5     4    1
     5     6     5   ar
     6     7     6   ar
     7     8     7   ar
     8     9     8   ar
     9    10     9    1
    10    11     9   ar
    11    12    11   ar
    12    12     6   ar
    13    13    12   ar
    14    14    13   ar
    15    15    14   ar
    16    15     5   ar
    17    16    15    1
    18    16     2    1
    19    16    17    1
    20    18    17    1
    21    19     2    1
    22    19    18    1
    23    19    20    1
    24    21    19    1
