@<TRIPOS>MOLECULE
2POG_WST_B301
 21 24 0 0 0
SMALL
GASTEIGER

@<TRIPOS>ATOM
      1 C          25.0860  -12.9760    8.7010 C.ar    1  UNL1        0.0504
      2 C          25.7900  -13.5270    9.8550 C.ar    1  UNL1        0.1946
      3 O          26.8550  -13.0170   10.3650 O.3     1  UNL1       -0.2868
      4 C          25.2100  -14.7200   10.4170 C.ar    1  UNL1        0.0419
      5 C          24.0320  -15.3390    9.9050 C.ar    1  UNL1        0.0064
      6 C          23.3730  -14.7830    8.7910 C.ar    1  UNL1        0.0368
      7 C          23.8930  -13.6110    8.1930 C.ar    1  UNL1        0.1379
      8 O          23.1870  -13.1250    7.1090 O.3     1  UNL1       -0.4750
      9 C          24.0020  -12.5040    6.0700 C.3     1  UNL1        0.1883
     10 C          24.8840  -11.3480    6.6450 C.3     1  UNL1        0.0487
     11 C          25.5900  -11.7050    7.9910 C.3     1  UNL1        0.0323
     12 C          25.4520  -10.4390    8.8680 C.3     1  UNL1        0.0047
     13 C          25.1020   -9.3260    7.9010 C.3     1  UNL1        0.0005
     14 C          24.1620  -10.0190    6.9350 C.3     1  UNL1        0.0043
     15 C          23.1400  -12.0690    4.8810 C.ar    1  UNL1        0.0174
     16 C          21.7130  -12.0880    4.9920 C.ar    1  UNL1        0.0025
     17 C          20.8930  -11.6810    3.9060 C.ar    1  UNL1        0.0418
     18 C          21.4290  -11.2310    2.6500 C.ar    1  UNL1        0.1957
     19 O          20.6910  -10.8630    1.6820 O.3     1  UNL1       -0.2866
     20 C          22.8530  -11.2270    2.5690 C.ar    1  UNL1        0.0418
     21 C          23.7000  -11.6310    3.6440 C.ar    1  UNL1        0.0025
@<TRIPOS>BOND
     1     2     1   ar
     2     3     2    1
     3     4     2   ar
     4     5     4   ar
     5     6     5   ar
     6     7     6   ar
     7     7     1   ar
     8     8     7    1
     9     9     8    1
    10    10     9    1
    11    11    10    1
    12    11     1    1
    13    11    12    1
    14    13    12    1
    15    10    14    1
    16    14    13    1
    17     9    15    1
    18    16    15   ar
    19    17    16   ar
    20    18    17   ar
    21    19    18    1
    22    20    18   ar
    23    21    20   ar
    24    21    15   ar
