@<TRIPOS>MOLECULE
2QA8_GEN_A600
 20 22 0 0 0
SMALL
GASTEIGER

@<TRIPOS>ATOM
      1 C          26.9720  -11.0490    9.2360 C.ar    1  UNL1        0.0798
      2 C          26.8820  -11.7440   10.4380 C.ar    1  UNL1        0.2020
      3 O          27.8510  -11.6110   11.3680 O.3     1  UNL1       -0.2864
      4 C          25.8000  -12.5710   10.6790 C.ar    1  UNL1        0.0843
      5 C          24.8000  -12.7030    9.7150 C.ar    1  UNL1        0.2049
      6 O          23.7400  -13.5020    9.9570 O.3     1  UNL1       -0.2862
      7 C          24.8820  -12.0240    8.5010 C.ar    1  UNL1        0.1126
      8 C          23.8180  -12.1620    7.4440 C.ar    1  UNL1        0.2047
      9 O          22.8320  -12.9010    7.6050 O.2     1  UNL1       -0.2862
     10 C          23.9880  -11.4120    6.1710 C.ar    1  UNL1        0.0767
     11 C          25.1160  -10.5970    6.0540 C.ar    1  UNL1        0.1826
     12 O          26.0960  -10.5090    7.0770 O.2     1  UNL1       -0.4500
     13 C          25.9780  -11.1890    8.2680 C.ar    1  UNL1        0.1548
     14 C          23.0220  -11.3900    5.0350 C.ar    1  UNL1        0.0064
     15 C          23.5140  -11.1450    3.7600 C.ar    1  UNL1        0.0035
     16 C          22.6670  -11.0530    2.6880 C.ar    1  UNL1        0.0420
     17 C          21.2890  -11.1630    2.8540 C.ar    1  UNL1        0.1957
     18 O          20.4940  -11.0420    1.7490 O.3     1  UNL1       -0.2866
     19 C          20.7690  -11.3640    4.1380 C.ar    1  UNL1        0.0420
     20 C          21.6340  -11.4560    5.2260 C.ar    1  UNL1        0.0035
@<TRIPOS>BOND
     1     2     1   ar
     2     3     2    1
     3     4     2   ar
     4     5     4   ar
     5     6     5    1
     6     7     5   ar
     7     8     7   ar
     8     9     8    2
     9    10     8   ar
    10    11    10   ar
    11    12    11   ar
    12    13     7   ar
    13    13     1   ar
    14    13    12   ar
    15    14    10    1
    16    15    14   ar
    17    16    15   ar
    18    17    16   ar
    19    18    17    1
    20    19    17   ar
    21    20    19   ar
    22    20    14   ar
