@<TRIPOS>MOLECULE
2YJA_EST_B1550
 20 23 0 0 0
SMALL
GASTEIGER

@<TRIPOS>ATOM
      1 C          23.9240  -11.3990    3.8670 C.ar    1  UNL1       -0.0013
      2 C          23.0630  -11.1130    2.7330 C.ar    1  UNL1        0.0417
      3 C          21.6110  -11.1650    2.8960 C.ar    1  UNL1        0.1954
      4 O          20.7520  -10.8700    1.8200 O.3     1  UNL1       -0.2866
      5 C          21.0450  -11.5000    4.1450 C.ar    1  UNL1        0.0375
      6 C          21.8630  -11.8270    5.2500 C.ar    1  UNL1       -0.0230
      7 C          21.1510  -12.2380    6.5460 C.3     1  UNL1        0.0261
      8 C          22.0580  -12.6360    7.7380 C.3     1  UNL1        0.0050
      9 C          23.4400  -11.9390    7.7510 C.3     1  UNL1        0.0044
     10 C          24.2250  -12.0800    6.3750 C.3     1  UNL1        0.0220
     11 C          23.3520  -11.7590    5.1410 C.ar    1  UNL1       -0.0263
     12 C          25.4680  -11.1180    6.5310 C.3     1  UNL1        0.0044
     13 C          26.3900  -11.5500    7.7180 C.3     1  UNL1        0.0028
     14 C          25.6070  -11.6740    9.0340 C.3     1  UNL1        0.0282
     15 C          24.3450  -12.6050    8.8460 C.3     1  UNL1        0.0028
     16 C          23.8010  -12.7350   10.2790 C.3     1  UNL1        0.0027
     17 C          25.1010  -12.7530   11.1610 C.3     1  UNL1        0.0329
     18 C          26.2780  -12.4680   10.1740 C.3     1  UNL1        0.1519
     19 O          27.2170  -11.7250   10.9410 O.3     1  UNL1       -0.2232
     20 C          25.1670  -10.2260    9.5110 C.3     1  UNL1        0.0025
@<TRIPOS>BOND
     1     2     1   ar
     2     3     2   ar
     3     4     3    1
     4     5     3   ar
     5     6     5   ar
     6     7     6    1
     7     8     7    1
     8     9     8    1
     9    10     9    1
    10    11     6   ar
    11    11     1   ar
    12    11    10    1
    13    10    12    1
    14    13    12    1
    15    14    13    1
    16    15    14    1
    17    15     9    1
    18    15    16    1
    19    17    16    1
    20    18    14    1
    21    18    17    1
    22    18    19    1
    23    14    20    1
