@<TRIPOS>MOLECULE
5DXE_EST_A1000
 20 23 0 0 0
SMALL
GASTEIGER

@<TRIPOS>ATOM
      1 C          23.9100  -11.3840    4.1370 C.ar    1  UNL1       -0.0013
      2 C          23.1150  -11.1170    3.0600 C.ar    1  UNL1        0.0417
      3 C          21.7450  -11.2600    3.1810 C.ar    1  UNL1        0.1954
      4 O          20.9510  -11.0170    2.1450 O.3     1  UNL1       -0.2866
      5 C          21.1950  -11.6450    4.3750 C.ar    1  UNL1        0.0375
      6 C          21.9690  -11.9260    5.4350 C.ar    1  UNL1       -0.0230
      7 C          21.3770  -12.3590    6.7490 C.3     1  UNL1        0.0261
      8 C          22.3420  -13.0380    7.6870 C.3     1  UNL1        0.0050
      9 C          23.5250  -12.1070    7.8010 C.3     1  UNL1        0.0044
     10 C          24.2560  -12.0730    6.4590 C.3     1  UNL1        0.0220
     11 C          23.3990  -11.7720    5.3270 C.ar    1  UNL1       -0.0263
     12 C          25.4400  -11.1120    6.5860 C.3     1  UNL1        0.0044
     13 C          26.3570  -11.4730    7.7540 C.3     1  UNL1        0.0028
     14 C          25.6300  -11.6440    9.0550 C.3     1  UNL1        0.0282
     15 C          24.4740  -12.5920    8.8270 C.3     1  UNL1        0.0028
     16 C          23.9200  -12.7860   10.2210 C.3     1  UNL1        0.0027
     17 C          25.1920  -12.7380   11.0610 C.3     1  UNL1        0.0329
     18 C          26.3460  -12.4090   10.1180 C.3     1  UNL1        0.1519
     19 O          27.3090  -11.6290   10.7680 O.3     1  UNL1       -0.2232
     20 C          25.2180  -10.2830    9.6050 C.3     1  UNL1        0.0025
@<TRIPOS>BOND
     1     2     1   ar
     2     3     2   ar
     3     4     3    1
     4     5     3   ar
     5     6     5   ar
     6     7     6    1
     7     8     7    1
     8     9     8    1
     9    10     9    1
    10    11     6   ar
    11    11     1   ar
    12    11    10    1
    13    10    12    1
    14    13    12    1
    15    14    13    1
    16    15    14    1
    17    15     9    1
    18    15    16    1
    19    17    16    1
    20    18    14    1
    21    18    17    1
    22    18    19    1
    23    14    20    1
