@<TRIPOS>MOLECULE
5DXG_EST_A1000
 20 23 0 0 0
SMALL
GASTEIGER

@<TRIPOS>ATOM
      1 C          23.8480  -11.2560    4.0300 C.ar    1  UNL1       -0.0013
      2 C          23.0380  -11.0170    2.9240 C.ar    1  UNL1        0.0417
      3 C          21.6890  -11.2110    3.0570 C.ar    1  UNL1        0.1954
      4 O          20.9160  -10.9800    2.0340 O.3     1  UNL1       -0.2866
      5 C          21.1520  -11.6320    4.2590 C.ar    1  UNL1        0.0375
      6 C          21.9000  -11.8620    5.3650 C.ar    1  UNL1       -0.0230
      7 C          21.2820  -12.3180    6.6580 C.3     1  UNL1        0.0261
      8 C          22.2660  -12.8350    7.6870 C.3     1  UNL1        0.0050
      9 C          23.5380  -11.9950    7.7830 C.3     1  UNL1        0.0044
     10 C          24.2580  -11.9380    6.4250 C.3     1  UNL1        0.0220
     11 C          23.3610  -11.6720    5.2550 C.ar    1  UNL1       -0.0263
     12 C          25.4320  -10.9720    6.6000 C.3     1  UNL1        0.0044
     13 C          26.3970  -11.3770    7.7200 C.3     1  UNL1        0.0028
     14 C          25.6830  -11.5740    9.0420 C.3     1  UNL1        0.0282
     15 C          24.5140  -12.4950    8.8280 C.3     1  UNL1        0.0028
     16 C          23.9940  -12.7320   10.2170 C.3     1  UNL1        0.0027
     17 C          25.2320  -12.7520   11.0790 C.3     1  UNL1        0.0329
     18 C          26.3780  -12.3410   10.1780 C.3     1  UNL1        0.1519
     19 O          27.3340  -11.6040   10.8530 O.3     1  UNL1       -0.2232
     20 C          25.2360  -10.2370    9.5940 C.3     1  UNL1        0.0025
@<TRIPOS>BOND
     1     2     1   ar
     2     3     2   ar
     3     4     3    1
     4     5     3   ar
     5     6     5   ar
     6     7     6    1
     7     8     7    1
     8     9     8    1
     9    10     9    1
    10    11     6   ar
    11    11     1   ar
    12    11    10    1
    13    10    12    1
    14    13    12    1
    15    14    13    1
    16    15    14    1
    17    15     9    1
    18    15    16    1
    19    17    16    1
    20    18    14    1
    21    18    17    1
    22    18    19    1
    23    14    20    1
