@<TRIPOS>MOLECULE
5KCT_OB7_A601
 34 38 0 0 0
SMALL
GASTEIGER

@<TRIPOS>ATOM
      1 C          21.7640  -11.1010    3.3470 C.ar    1  UNL1        0.1957
      2 C          23.0910  -10.9600    3.3870 C.ar    1  UNL1        0.0420
      3 C          23.8020  -11.2610    4.4730 C.ar    1  UNL1        0.0030
      4 C          23.2820  -11.7320    5.6070 C.ar    1  UNL1       -0.0017
      5 C          21.9540  -11.8820    5.5490 C.ar    1  UNL1        0.0030
      6 C          21.2150  -11.5850    4.4640 C.ar    1  UNL1        0.0420
      7 O          21.0360  -10.8240    2.2670 O.3     1  UNL1       -0.2866
      8 C          24.1000  -12.0320    6.6710 C.2     1  UNL1        0.0046
      9 C          25.2860  -11.5590    7.1150 C.2     1  UNL1        0.0030
     10 C          25.5680  -12.4030    8.3510 C.3     1  UNL1        0.1394
     11 C          24.6580  -11.9270    9.4600 C.3     1  UNL1        0.0625
     12 C          23.3350  -12.4550    8.9470 C.3     1  UNL1        0.1829
     13 C          23.7990  -13.1460    7.6720 C.3     1  UNL1        0.1612
     14 C          26.1130  -10.5500    6.8590 C.ar    1  UNL1       -0.0017
     15 C          25.6600   -9.3030    6.6720 C.ar    1  UNL1        0.0030
     16 C          26.4730   -8.2860    6.4710 C.ar    1  UNL1        0.0420
     17 C          27.7760   -8.4770    6.4790 C.ar    1  UNL1        0.1957
     18 C          28.2210   -9.6800    6.7040 C.ar    1  UNL1        0.0420
     19 C          27.4180  -10.6910    6.9040 C.ar    1  UNL1        0.0030
     20 O          28.6450   -7.5050    6.2720 O.3     1  UNL1       -0.2866
     21 O          25.0360  -13.6160    8.0310 O.3     1  UNL1       -0.3481
     22 S          22.6050  -13.5240   10.0660 S.O2    1  UNL1        0.0580
     23 N          23.4120  -15.0110   10.2730 N.pl3   1  UNL1       -0.1944
     24 C          24.4150  -15.1920   11.0260 C.ar    1  UNL1        0.0685
     25 C          25.6100  -15.5090   10.5250 C.ar    1  UNL1        0.0170
     26 C          26.7220  -15.7100   11.2470 C.ar    1  UNL1        0.0127
     27 C          26.7030  -15.5850   12.5730 C.ar    1  UNL1        0.0578
     28 C          25.5230  -15.2910   13.1120 C.ar    1  UNL1        0.0127
     29 C          24.4390  -15.0860   12.3570 C.ar    1  UNL1        0.0170
     30 CL         28.0990  -15.8130   13.5910 Cl      1  UNL1       -0.0822
     31 C          22.9950  -16.0790    9.3560 C.3     1  UNL1        0.1155
     32 C          22.7320  -17.4670    9.9060 C.3     1  UNL1        0.0252
     33 O          21.4030  -13.8810    9.4690 O.2     1  UNL1       -0.1542
     34 O          22.7240  -13.0580   11.3690 O.2     1  UNL1       -0.1542
@<TRIPOS>BOND
     1     2     1   ar
     2     3     2   ar
     3     4     3   ar
     4     5     4   ar
     5     6     1   ar
     6     6     5   ar
     7     7     1    1
     8     8     4    1
     9     9     8    2
    10    10     9    1
    11    10    11    1
    12    12    11    1
    13    13    12    1
    14    13     8    1
    15    14     9    1
    16    15    14   ar
    17    16    15   ar
    18    17    16   ar
    19    18    17   ar
    20    19    14   ar
    21    19    18   ar
    22    20    17    1
    23    21    13    1
    24    21    10    1
    25    22    12    1
    26    22    23    1
    27    24    23    1
    28    25    24   ar
    29    26    25   ar
    30    27    26   ar
    31    28    27   ar
    32    29    28   ar
    33    29    24   ar
    34    30    27    1
    35    31    23    1
    36    32    31    1
    37    33    22    2
    38    34    22    2
