@<TRIPOS>MOLECULE
5TN4_7FZ_A601
 19 21 0 0 0
SMALL
GASTEIGER

@<TRIPOS>ATOM
      1 O          27.3360  -12.1570   10.7780 O.3     1  UNL1       -0.2872
      2 C          26.4560  -12.0390    9.6880 C.ar    1  UNL1        0.1877
      3 C          26.9920  -11.7980    8.4420 C.ar    1  UNL1        0.0167
      4 C          28.4870  -11.6710    8.2730 C.3     1  UNL1        0.0344
      5 C          26.1530  -11.6740    7.3530 C.ar    1  UNL1       -0.0011
      6 C          24.7810  -11.7890    7.4990 C.ar    1  UNL1       -0.0004
      7 C          23.9820  -11.6370    6.2310 C.ar    1  UNL1       -0.0003
      8 C          22.5910  -11.6520    6.1480 C.ar    1  UNL1       -0.0045
      9 C          22.0140  -11.4970    4.8660 C.ar    1  UNL1       -0.0237
     10 C          20.5710  -11.4680    4.3990 C.3     1  UNL1        0.0291
     11 C          20.5930  -11.5580    2.8880 C.3     1  UNL1        0.0421
     12 C          21.9870  -11.1840    2.4990 C.3     1  UNL1        0.1743
     13 O          22.5130  -12.0100    1.5260 O.3     1  UNL1       -0.2183
     14 C          22.8230  -11.3340    3.7590 C.ar    1  UNL1        0.0037
     15 C          24.2080  -11.3200    3.8580 C.ar    1  UNL1       -0.0022
     16 C          24.7730  -11.4700    5.0970 C.ar    1  UNL1       -0.0003
     17 C          24.2310  -12.0370    8.7430 C.ar    1  UNL1       -0.0011
     18 C          25.0790  -12.1580    9.8360 C.ar    1  UNL1        0.0167
     19 C          24.4990  -12.4190   11.2090 C.3     1  UNL1        0.0344
@<TRIPOS>BOND
     1     2     1    1
     2     3     2   ar
     3     4     3    1
     4     5     3   ar
     5     6     5   ar
     6     7     6    1
     7     8     7   ar
     8     9     8   ar
     9    10     9    1
    10    11    10    1
    11    12    11    1
    12    12    13    1
    13    14    12    1
    14    14     9   ar
    15    15    14   ar
    16    16    15   ar
    17    16     7   ar
    18    17     6   ar
    19    18    17   ar
    20    18     2   ar
    21    19    18    1
