@<TRIPOS>MOLECULE
5UFX_86Y_B601
 34 38 0 0 0
SMALL
GASTEIGER

@<TRIPOS>ATOM
      1 C          28.8120   -3.0550    6.2030 C.3     1  UNL1        0.0722
      2 C          27.9300   -2.3020    5.2670 C.3     1  UNL1        0.0174
      3 C          28.1390   -0.7800    5.4340 C.3     1  UNL1        0.0015
      4 C          26.5650   -2.7330    5.5830 C.3     1  UNL1        0.0187
      5 C          26.7500   -4.1190    6.1430 C.3     1  UNL1        0.0722
      6 N          28.2170   -4.3450    6.1320 N.3     1  UNL1       -0.2696
      7 C          28.6840   -5.0950    7.2020 C.3     1  UNL1        0.1200
      8 C          28.4760   -6.5820    7.0260 C.3     1  UNL1        0.2226
      9 O          27.1240   -6.8310    7.3240 O.3     1  UNL1       -0.4740
     10 C          26.6660   -8.1200    7.0400 C.ar    1  UNL1        0.1386
     11 C          27.6480   -9.2350    6.7470 C.ar    1  UNL1        0.0367
     12 C          27.1960  -10.4790    6.4730 C.ar    1  UNL1        0.0026
     13 C          25.3090   -8.3640    7.0430 C.ar    1  UNL1        0.0367
     14 C          24.7920   -9.7640    6.7430 C.ar    1  UNL1        0.0026
     15 C          25.6750  -10.7760    6.4660 C.ar    1  UNL1        0.0217
     16 C          25.2620  -12.1010    6.1810 C.3     1  UNL1        0.2102
     17 O          24.8900  -12.2120    4.8880 O.3     1  UNL1       -0.4702
     18 C          23.8000  -11.8280    4.2950 C.ar    1  UNL1        0.1421
     19 C          23.8590  -11.4050    2.9680 C.ar    1  UNL1        0.0789
     20 C          22.6180  -10.9650    2.3240 C.ar    1  UNL1        0.1988
     21 O          22.6500  -10.5360    0.9680 O.3     1  UNL1       -0.2865
     22 C          21.4800  -10.9390    2.9730 C.ar    1  UNL1        0.0422
     23 C          21.4500  -11.3940    4.4090 C.ar    1  UNL1        0.0060
     24 C          22.6190  -11.7950    5.0080 C.ar    1  UNL1        0.0301
     25 C          22.6130  -12.1980    6.3340 C.2     1  UNL1       -0.0192
     26 C          21.2860  -12.4590    7.0950 C.3     1  UNL1        0.0309
     27 C          23.8740  -12.3550    6.9880 C.2     1  UNL1        0.0176
     28 C          24.0940  -12.4520    8.4890 C.ar    1  UNL1       -0.0004
     29 C          23.5040  -11.5800    9.3480 C.ar    1  UNL1        0.0031
     30 C          23.7820  -11.6860   10.8350 C.ar    1  UNL1        0.0420
     31 C          24.6280  -12.6240   11.2670 C.ar    1  UNL1        0.1957
     32 O          24.9170  -12.7490   12.6210 O.3     1  UNL1       -0.2866
     33 C          25.3060  -13.5740   10.3090 C.ar    1  UNL1        0.0420
     34 C          25.0650  -13.4840    8.9910 C.ar    1  UNL1        0.0031
@<TRIPOS>BOND
     1     2     1    1
     2     2     3    1
     3     4     2    1
     4     5     4    1
     5     6     5    1
     6     6     1    1
     7     7     6    1
     8     8     7    1
     9     9     8    1
    10    10     9    1
    11    11    10   ar
    12    12    11   ar
    13    13    10   ar
    14    14    13   ar
    15    15    14   ar
    16    15    12   ar
    17    16    15    1
    18    17    16    1
    19    18    17    1
    20    19    18   ar
    21    20    19   ar
    22    21    20    1
    23    22    20   ar
    24    23    22   ar
    25    24    23   ar
    26    24    18   ar
    27    25    24    1
    28    26    25    1
    29    27    25    2
    30    27    16    1
    31    28    27    1
    32    29    28   ar
    33    30    29   ar
    34    31    30   ar
    35    32    31    1
    36    33    31   ar
    37    34    33   ar
    38    34    28   ar
