@<TRIPOS>MOLECULE
5W9C_OHT_D601
 29 31 0 0 0
SMALL
GASTEIGER

@<TRIPOS>ATOM
      1 C          22.1640  -14.2810    8.0460 C.3     1  UNL1        0.0050
      2 C          23.2720  -13.9020    7.1160 C.3     1  UNL1        0.0264
      3 C          23.7190  -12.5010    7.4380 C.2     1  UNL1       -0.0222
      4 C          24.6090  -12.5800    8.6480 C.ar    1  UNL1       -0.0040
      5 C          24.5310  -11.5890    9.5640 C.ar    1  UNL1       -0.0003
      6 C          25.2960  -11.5850   10.6950 C.ar    1  UNL1       -0.0000
      7 C          26.1890  -12.6480   10.9100 C.ar    1  UNL1       -0.0000
      8 C          26.2720  -13.6240   10.0290 C.ar    1  UNL1       -0.0000
      9 C          25.5020  -13.6250    8.8790 C.ar    1  UNL1       -0.0003
     10 C          24.3720  -11.8630    6.2360 C.2     1  UNL1       -0.0040
     11 C          23.3900  -11.5940    5.1010 C.ar    1  UNL1       -0.0001
     12 C          22.0120  -11.7750    5.1500 C.ar    1  UNL1        0.0033
     13 C          21.2570  -11.5320    4.0180 C.ar    1  UNL1        0.0420
     14 C          21.8520  -11.1320    2.8240 C.ar    1  UNL1        0.1957
     15 O          21.1950  -10.8360    1.6820 O.3     1  UNL1       -0.2866
     16 C          23.2160  -10.9780    2.8050 C.ar    1  UNL1        0.0420
     17 C          23.9750  -11.2220    3.9150 C.ar    1  UNL1        0.0033
     18 C          25.2260  -10.6030    6.5530 C.ar    1  UNL1       -0.0001
     19 C          26.5350  -10.7360    6.8690 C.ar    1  UNL1        0.0031
     20 C          27.3030   -9.6230    7.1240 C.ar    1  UNL1        0.0369
     21 C          26.7960   -8.3490    7.0570 C.ar    1  UNL1        0.1386
     22 O          27.6090   -7.2180    7.3360 O.3     1  UNL1       -0.4740
     23 C          28.2050   -6.7610    6.2670 C.3     1  UNL1        0.2226
     24 C          28.9320   -5.4810    6.5670 C.3     1  UNL1        0.1201
     25 N          28.3730   -4.3770    5.7600 N.3     1  UNL1       -0.2672
     26 C          27.0120   -4.1850    5.9710 C.3     1  UNL1        0.0898
     27 C          28.9940   -3.1890    6.0320 C.3     1  UNL1        0.0898
     28 C          25.4950   -8.2060    6.7390 C.ar    1  UNL1        0.0369
     29 C          24.7100   -9.3330    6.4620 C.ar    1  UNL1        0.0031
@<TRIPOS>BOND
     1     2     1    1
     2     3     2    1
     3     4     3    1
     4     5     4   ar
     5     6     5   ar
     6     7     6   ar
     7     8     7   ar
     8     9     8   ar
     9     9     4   ar
    10    10     3    2
    11    11    10    1
    12    12    11   ar
    13    13    12   ar
    14    14    13   ar
    15    15    14    1
    16    16    14   ar
    17    17    16   ar
    18    17    11   ar
    19    18    10    1
    20    19    18   ar
    21    20    19   ar
    22    21    20   ar
    23    22    21    1
    24    23    22    1
    25    24    23    1
    26    25    24    1
    27    26    25    1
    28    27    25    1
    29    28    21   ar
    30    29    28   ar
    31    29    18   ar
