@<TRIPOS>MOLECULE
5WGD_EST_A601
 20 23 0 0 0
SMALL
GASTEIGER

@<TRIPOS>ATOM
      1 C          23.8560  -11.2000    4.0590 C.ar    1  UNL1       -0.0013
      2 C          23.0420  -10.9890    2.9820 C.ar    1  UNL1        0.0417
      3 C          21.6780  -11.1630    3.0350 C.ar    1  UNL1        0.1954
      4 O          20.9410  -10.9190    1.9550 O.3     1  UNL1       -0.2866
      5 C          21.0920  -11.5820    4.1930 C.ar    1  UNL1        0.0375
      6 C          21.8580  -11.8030    5.3190 C.ar    1  UNL1       -0.0230
      7 C          21.2260  -12.2550    6.6130 C.3     1  UNL1        0.0261
      8 C          22.2290  -12.7890    7.6030 C.3     1  UNL1        0.0050
      9 C          23.4640  -11.9300    7.7450 C.3     1  UNL1        0.0044
     10 C          24.2080  -11.8670    6.4300 C.3     1  UNL1        0.0220
     11 C          23.3280  -11.6110    5.2490 C.ar    1  UNL1       -0.0263
     12 C          25.3650  -10.8920    6.5770 C.3     1  UNL1        0.0044
     13 C          26.3400  -11.4500    7.5970 C.3     1  UNL1        0.0028
     14 C          25.6780  -11.6370    8.9630 C.3     1  UNL1        0.0282
     15 C          24.4590  -12.4920    8.7580 C.3     1  UNL1        0.0028
     16 C          24.0190  -12.8340   10.1680 C.3     1  UNL1        0.0027
     17 C          25.2730  -12.8710   10.9850 C.3     1  UNL1        0.0329
     18 C          26.4020  -12.3830   10.0900 C.3     1  UNL1        0.1519
     19 O          27.3660  -11.6590   10.7940 O.3     1  UNL1       -0.2232
     20 C          25.2550  -10.3110    9.4840 C.3     1  UNL1        0.0025
@<TRIPOS>BOND
     1     2     1   ar
     2     3     2   ar
     3     4     3    1
     4     5     3   ar
     5     6     5   ar
     6     7     6    1
     7     8     7    1
     8     9     8    1
     9    10     9    1
    10    11     6   ar
    11    11     1   ar
    12    11    10    1
    13    10    12    1
    14    13    12    1
    15    14    13    1
    16    15    14    1
    17    15     9    1
    18    15    16    1
    19    17    16    1
    20    18    14    1
    21    18    17    1
    22    18    19    1
    23    14    20    1
