@<TRIPOS>MOLECULE
6CBZ_EST_A601
 20 23 0 0 0
SMALL
GASTEIGER

@<TRIPOS>ATOM
      1 C          23.8760  -11.3050    4.0570 C.ar    1  UNL1       -0.0013
      2 C          23.0900  -11.0060    2.9700 C.ar    1  UNL1        0.0417
      3 C          21.6980  -11.1120    3.0120 C.ar    1  UNL1        0.1954
      4 O          20.9260  -10.8430    1.9150 O.3     1  UNL1       -0.2866
      5 C          21.1670  -11.5220    4.2220 C.ar    1  UNL1        0.0375
      6 C          21.9100  -11.8020    5.3330 C.ar    1  UNL1       -0.0230
      7 C          21.2780  -12.2250    6.6300 C.3     1  UNL1        0.0261
      8 C          22.2260  -12.9290    7.5420 C.3     1  UNL1        0.0050
      9 C          23.4490  -12.0450    7.7720 C.3     1  UNL1        0.0044
     10 C          24.1980  -12.0090    6.4370 C.3     1  UNL1        0.0220
     11 C          23.3550  -11.6790    5.2490 C.ar    1  UNL1       -0.0263
     12 C          25.4020  -11.0760    6.5520 C.3     1  UNL1        0.0044
     13 C          26.3470  -11.5200    7.6560 C.3     1  UNL1        0.0028
     14 C          25.6210  -11.6600    8.9710 C.3     1  UNL1        0.0282
     15 C          24.4110  -12.5650    8.8270 C.3     1  UNL1        0.0028
     16 C          23.9090  -12.8130   10.2270 C.3     1  UNL1        0.0027
     17 C          25.2110  -12.7640   11.0250 C.3     1  UNL1        0.0329
     18 C          26.3590  -12.3670   10.0910 C.3     1  UNL1        0.1519
     19 O          27.3040  -11.6060   10.8300 O.3     1  UNL1       -0.2232
     20 C          25.1860  -10.3250    9.5160 C.3     1  UNL1        0.0025
@<TRIPOS>BOND
     1     2     1   ar
     2     3     2   ar
     3     4     3    1
     4     5     3   ar
     5     6     5   ar
     6     7     6    1
     7     8     7    1
     8     9     8    1
     9    10     9    1
    10    11     6   ar
    11    11     1   ar
    12    11    10    1
    13    10    12    1
    14    13    12    1
    15    14    13    1
    16    15    14    1
    17    15     9    1
    18    15    16    1
    19    17    16    1
    20    18    14    1
    21    18    17    1
    22    18    19    1
    23    14    20    1
