@<TRIPOS>MOLECULE
7KBS_RAL_B601
 34 38 0 0 0
SMALL
GASTEIGER

@<TRIPOS>ATOM
      1 C          23.7950  -11.2840    4.0650 C.ar    1  UNL1        0.0039
      2 C          22.9680  -11.0220    3.0110 C.ar    1  UNL1        0.0421
      3 C          21.5950  -11.2460    3.1100 C.ar    1  UNL1        0.1962
      4 O          20.8390  -10.9070    2.0440 O.3     1  UNL1       -0.2866
      5 C          21.0400  -11.7480    4.2690 C.ar    1  UNL1        0.0485
      6 C          21.8770  -12.0340    5.3360 C.ar    1  UNL1        0.0327
      7 S          21.4450  -12.7180    6.8730 S.2     1  UNL1       -0.0867
      8 C          23.0790  -12.7390    7.4300 C.ar    1  UNL1        0.0325
      9 C          23.3970  -13.3080    8.7590 C.ar    1  UNL1        0.0063
     10 C          22.8940  -14.5350    9.1650 C.ar    1  UNL1        0.0038
     11 C          23.2210  -15.0840   10.3930 C.ar    1  UNL1        0.0420
     12 C          24.0670  -14.4040   11.2560 C.ar    1  UNL1        0.1957
     13 O          24.3700  -14.9230   12.4720 O.3     1  UNL1       -0.2866
     14 C          24.5790  -13.1760   10.8710 C.ar    1  UNL1        0.0420
     15 C          24.2310  -12.6410    9.6450 C.ar    1  UNL1        0.0038
     16 C          23.2590  -11.7990    5.2520 C.ar    1  UNL1        0.0098
     17 C          23.9080  -12.1940    6.4970 C.ar    1  UNL1        0.0454
     18 C          25.3120  -12.0090    6.7500 C.2     1  UNL1        0.1960
     19 O          26.0040  -12.9770    6.8590 O.2     1  UNL1       -0.2866
     20 C          25.9180  -10.6550    6.8910 C.ar    1  UNL1        0.0392
     21 C          25.0970   -9.5520    7.0200 C.ar    1  UNL1        0.0063
     22 C          25.6320   -8.2870    7.1640 C.ar    1  UNL1        0.0370
     23 C          27.0040   -8.0780    7.1330 C.ar    1  UNL1        0.1386
     24 C          27.8360   -9.1750    7.0090 C.ar    1  UNL1        0.0370
     25 C          27.2870  -10.4410    6.8930 C.ar    1  UNL1        0.0063
     26 O          27.4500   -6.7960    7.3000 O.3     1  UNL1       -0.4740
     27 C          28.7650   -6.4680    6.8840 C.3     1  UNL1        0.2226
     28 C          29.0760   -5.0440    7.2320 C.3     1  UNL1        0.1200
     29 N          28.6200   -4.0760    6.2470 N.3     1  UNL1       -0.2696
     30 C          29.2820   -2.8030    6.4430 C.3     1  UNL1        0.0722
     31 C          28.8530   -1.7550    5.4540 C.3     1  UNL1        0.0174
     32 C          27.3530   -1.5990    5.4300 C.3     1  UNL1        0.0029
     33 C          26.6720   -2.9410    5.3410 C.3     1  UNL1        0.0174
     34 C          27.1990   -3.8980    6.3770 C.3     1  UNL1        0.0722
@<TRIPOS>BOND
     1     2     1   ar
     2     3     2   ar
     3     4     3    1
     4     5     3   ar
     5     6     5   ar
     6     7     6   ar
     7     8     7   ar
     8     9     8    1
     9    10     9   ar
    10    11    10   ar
    11    12    11   ar
    12    13    12    1
    13    14    12   ar
    14    15    14   ar
    15    15     9   ar
    16    16     6   ar
    17    16     1   ar
    18    17    16   ar
    19    17     8   ar
    20    18    17    1
    21    19    18    2
    22    20    18    1
    23    21    20   ar
    24    22    21   ar
    25    23    22   ar
    26    24    23   ar
    27    25    20   ar
    28    25    24   ar
    29    26    23    1
    30    27    26    1
    31    28    27    1
    32    29    28    1
    33    30    29    1
    34    31    30    1
    35    32    31    1
    36    33    32    1
    37    34    33    1
    38    34    29    1
