@<TRIPOS>MOLECULE
7KBS_RAL_B601
 34 38 0 0 0
SMALL
GASTEIGER

@<TRIPOS>ATOM
      1 C          23.7100  -11.1880    3.9600 C.ar    1  UNL1        0.0039
      2 C          22.8650  -10.9630    2.9110 C.ar    1  UNL1        0.0421
      3 C          21.4980  -11.2090    3.0340 C.ar    1  UNL1        0.1962
      4 O          20.7220  -10.9070    1.9710 O.3     1  UNL1       -0.2866
      5 C          20.9670  -11.6960    4.2100 C.ar    1  UNL1        0.0485
      6 C          21.8220  -11.9430    5.2720 C.ar    1  UNL1        0.0327
      7 S          21.4230  -12.6010    6.8290 S.2     1  UNL1       -0.0867
      8 C          23.0640  -12.5810    7.3640 C.ar    1  UNL1        0.0325
      9 C          23.4090  -13.1150    8.7010 C.ar    1  UNL1        0.0063
     10 C          22.9330  -14.3420    9.1400 C.ar    1  UNL1        0.0038
     11 C          23.2860  -14.8570   10.3760 C.ar    1  UNL1        0.0420
     12 C          24.1310  -14.1430   11.2120 C.ar    1  UNL1        0.1957
     13 O          24.4590  -14.6310   12.4350 O.3     1  UNL1       -0.2866
     14 C          24.6160  -12.9160   10.7950 C.ar    1  UNL1        0.0420
     15 C          24.2420  -12.4140    9.5610 C.ar    1  UNL1        0.0038
     16 C          23.1990  -11.6860    5.1650 C.ar    1  UNL1        0.0098
     17 C          23.8710  -12.0410    6.4090 C.ar    1  UNL1        0.0454
     18 C          25.2740  -11.8260    6.6400 C.2     1  UNL1        0.1960
     19 O          25.9850  -12.7780    6.7600 O.2     1  UNL1       -0.2866
     20 C          25.8580  -10.4590    6.7430 C.ar    1  UNL1        0.0392
     21 C          25.0180   -9.3680    6.8590 C.ar    1  UNL1        0.0063
     22 C          25.5320   -8.0910    6.9690 C.ar    1  UNL1        0.0370
     23 C          26.8990   -7.8580    6.9140 C.ar    1  UNL1        0.1386
     24 C          27.7490   -8.9420    6.8030 C.ar    1  UNL1        0.0370
     25 C          27.2220  -10.2200    6.7230 C.ar    1  UNL1        0.0063
     26 O          27.3250   -6.5640    7.0480 O.3     1  UNL1       -0.4740
     27 C          28.6280   -6.2220    6.6080 C.3     1  UNL1        0.2226
     28 C          28.9180   -4.7860    6.9210 C.3     1  UNL1        0.1200
     29 N          28.4310   -3.8480    5.9210 N.3     1  UNL1       -0.2696
     30 C          29.0720   -2.5590    6.0810 C.3     1  UNL1        0.0722
     31 C          28.6110   -1.5410    5.0750 C.3     1  UNL1        0.0174
     32 C          27.1090   -1.4120    5.0670 C.3     1  UNL1        0.0029
     33 C          26.4510   -2.7680    5.0160 C.3     1  UNL1        0.0174
     34 C          27.0090   -3.6920    6.0660 C.3     1  UNL1        0.0722
@<TRIPOS>BOND
     1     2     1   ar
     2     3     2   ar
     3     4     3    1
     4     5     3   ar
     5     6     5   ar
     6     7     6   ar
     7     8     7   ar
     8     9     8    1
     9    10     9   ar
    10    11    10   ar
    11    12    11   ar
    12    13    12    1
    13    14    12   ar
    14    15    14   ar
    15    15     9   ar
    16    16     6   ar
    17    16     1   ar
    18    17    16   ar
    19    17     8   ar
    20    18    17    1
    21    19    18    2
    22    20    18    1
    23    21    20   ar
    24    22    21   ar
    25    23    22   ar
    26    24    23   ar
    27    25    20   ar
    28    25    24   ar
    29    26    23    1
    30    27    26    1
    31    28    27    1
    32    29    28    1
    33    30    29    1
    34    31    30    1
    35    32    31    1
    36    33    32    1
    37    34    33    1
    38    34    29    1
