@<TRIPOS>MOLECULE
7NFB_GEN_A601
 30 32 0 0 0
SMALL
GASTEIGER

@<TRIPOS>ATOM
      1 C          27.0240  -11.1700    9.1640 C.ar    1  UNL1        0.0231
      2 C          26.8790  -11.8010   10.3900 C.ar    1  UNL1        0.1239
      3 O          27.8790  -11.6860   11.3060 O.3     1  UNL1       -0.5065
      4 C          25.7400  -12.5400   10.7110 C.ar    1  UNL1        0.0223
      5 C          24.7430  -12.6510    9.7480 C.ar    1  UNL1        0.1347
      6 O          23.6510  -13.3640   10.0460 O.3     1  UNL1       -0.5058
      7 C          24.8310  -12.0360    8.5040 C.ar    1  UNL1        0.1060
      8 C          23.7750  -12.1750    7.4860 C.ar    1  UNL1        0.2037
      9 O          22.7760  -12.8250    7.6810 O.2     1  UNL1       -0.2863
     10 C          24.0420  -11.4990    6.2350 C.ar    1  UNL1        0.0644
     11 C          25.1650  -10.7720    6.1290 C.ar    1  UNL1        0.1038
     12 O          26.1670  -10.6890    7.0520 O.2     1  UNL1       -0.4618
     13 C          25.9780  -11.3170    8.2450 C.ar    1  UNL1        0.1454
     14 C          23.0910  -11.4310    5.1010 C.ar    1  UNL1       -0.0110
     15 C          23.6100  -11.2350    3.8190 C.ar    1  UNL1       -0.0504
     16 C          22.7640  -11.1100    2.7210 C.ar    1  UNL1       -0.0196
     17 C          21.3940  -11.1920    2.9220 C.ar    1  UNL1        0.1169
     18 O          20.5640  -11.0650    1.8470 O.3     1  UNL1       -0.5068
     19 C          20.8550  -11.4000    4.1950 C.ar    1  UNL1       -0.0196
     20 C          21.7090  -11.5070    5.2840 C.ar    1  UNL1       -0.0504
     21 H          27.7820  -10.6710    8.9610 H       1  UNL1        0.0691
     22 H          28.4520  -12.2640   11.0460 H       1  UNL1        0.2921
     23 H          25.6480  -12.9460   11.5420 H       1  UNL1        0.0691
     24 H          23.9290  -14.1660   10.0340 H       1  UNL1        0.2922
     25 H          25.4050  -10.2300    5.4120 H       1  UNL1        0.1037
     26 H          24.5290  -11.1850    3.6850 H       1  UNL1        0.0625
     27 H          23.1010  -10.9750    1.8650 H       1  UNL1        0.0654
     28 H          20.5950  -10.2190    1.6700 H       1  UNL1        0.2921
     29 H          19.9340  -11.4650    4.3020 H       1  UNL1        0.0654
     30 H          21.3520  -11.6290    6.1340 H       1  UNL1        0.0625
@<TRIPOS>BOND
     1     2     1   ar
     2     3     2    1
     3     4     2   ar
     4     5     4   ar
     5     6     5    1
     6     7     5   ar
     7     8     7   ar
     8     9     8    2
     9    10     8   ar
    10    11    10   ar
    11    12    11   ar
    12    13     7   ar
    13    13     1   ar
    14    13    12   ar
    15    14    10    1
    16    15    14   ar
    17    16    15   ar
    18    17    16   ar
    19    18    17    1
    20    19    17   ar
    21    20    19   ar
    22    20    14   ar
    23    21     1    1
    24    22     3    1
    25    23     4    1
    26    24     6    1
    27    25    11    1
    28    26    15    1
    29    27    16    1
    30    28    18    1
    31    29    19    1
    32    30    20    1
