@<TRIPOS>MOLECULE
7RRX_7AI_B601
 37 41 0 0 0
SMALL
GASTEIGER

@<TRIPOS>ATOM
      1  C10       21.6240  -11.1450    3.1330 C.ar  601  7AI601      0.1957
      2  C13       21.6610  -11.8920    5.3400 C.ar  601  7AI601     -0.0009
      3  C20       23.9360  -17.3410    9.8360 C.3   601  7AI601      0.4174
      4  C21       26.1620  -15.4470   10.4470 C.ar  601  7AI601      0.0690
      5  C22       26.9350  -15.6930   11.5250 C.ar  601  7AI601      0.0194
      6  C24       28.7930  -16.3660   10.2280 C.ar  601  7AI601      0.1958
      7  C26       26.7610  -15.6870    9.2500 C.ar  601  7AI601      0.0194
      8  C28       25.7960  -10.6830    6.8410 C.ar  601  7AI601     -0.0195
      9  C01       23.0100  -11.7360    5.4520 C.ar  601  7AI601     -0.0195
     10  N01       24.9520  -15.0360   10.6440 N.pl3 601  7AI601     -0.1856
     11  C04       23.1900  -13.1180    7.5500 C.3   601  7AI601      0.1214
     12  S01       24.5250  -13.3710   10.8950 S.O2  601  7AI601      0.0579
     13  C06       25.1060  -12.6890    8.2680 C.3   601  7AI601      0.1431
     14  C07       22.8590  -12.3820    8.8630 C.3   601  7AI601      0.0579
     15  C08       24.2650  -12.2980    9.5010 C.3   601  7AI601      0.1787
     16  C09       22.9460  -10.9550    3.2200 C.ar  601  7AI601      0.0417
     17  C11       20.9930  -11.6110    4.2090 C.ar  601  7AI601      0.0417
     18  C12       23.6240  -11.2600    4.3430 C.ar  601  7AI601     -0.0009
     19  O01       24.3720  -13.8100    7.8350 O.3   601  7AI601     -0.3562
     20  O02       30.0920  -16.8140   10.2190 O.3   601  7AI601     -0.2866
     21  C16       24.9090  -11.6910    7.1110 C.3   601  7AI601      0.0576
     22  C19       23.8310  -16.0760   10.6450 C.3   601  7AI601      0.2182
     23  O03       20.9440  -10.8770    2.0130 O.3   601  7AI601     -0.2866
     24  O05       23.3020  -13.6700   11.6300 O.2   601  7AI601     -0.1542
     25  C23       28.1970  -16.1310   11.4170 C.ar  601  7AI601      0.0433
     26  C25       28.0290  -16.1290    9.1410 C.ar  601  7AI601      0.0433
     27  C27       23.6940  -12.0390    6.5880 C.3   601  7AI601      0.0560
     28  C29       25.3780   -9.4120    6.6140 C.ar  601  7AI601     -0.0009
     29  C30       26.2270   -8.3980    6.3390 C.ar  601  7AI601      0.0417
     30  C31       27.5640   -8.5860    6.2670 C.ar  601  7AI601      0.1957
     31  C32       27.9950   -9.8540    6.4880 C.ar  601  7AI601      0.0417
     32  C33       27.1400  -10.8610    6.7630 C.ar  601  7AI601     -0.0009
     33  O06       28.4230   -7.5580    5.9800 O.3   601  7AI601     -0.2866
     34  F01       24.3490  -17.1840    8.6120 F     601  7AI601     -0.1681
     35  F02       24.7640  -18.1980   10.3820 F     601  7AI601     -0.1681
     36  F03       22.7630  -17.9210    9.7340 F     601  7AI601     -0.1681
     37  O04       25.7520  -13.0260   11.6190 O.2   601  7AI601     -0.1542
@<TRIPOS>BOND
     1    23     1    1
     2     1    16   ar
     3     1    17   ar
     4    16    18   ar
     5    17     2   ar
     6    18     9   ar
     7     2     9   ar
     8     9    27    1
     9    33    30    1
    10    30    29   ar
    11    30    31   ar
    12    29    28   ar
    13    31    32   ar
    14    27    21    1
    15    27    11    1
    16    28     8   ar
    17    32     8   ar
    18     8    21    1
    19    21    13    1
    20    11    19    1
    21    11    14    1
    22    19    13    1
    23    13    15    1
    24    34     3    1
    25    14    15    1
    26    26     7   ar
    27    26     6   ar
    28     7     4   ar
    29    15    12    1
    30    36     3    1
    31     3    35    1
    32     3    22    1
    33    20     6    1
    34     6    25   ar
    35     4    10    1
    36     4     5   ar
    37    10    22    1
    38    10    12    1
    39    12    37    2
    40    12    24    2
    41    25     5   ar
