@<TRIPOS>MOLECULE
7RS2_7I5_C601
 33 37 0 0 0
SMALL
GASTEIGER

@<TRIPOS>ATOM
      1  C10       27.2830  -10.8310    6.7200 C.ar  601  7I5601     -0.0009
      2  C13       26.0820   -8.2570    6.2980 C.ar  601  7I5601      0.0417
      3  C15       21.3700  -12.1260    5.0710 C.ar  601  7I5601     -0.0009
      4  C17       21.3810  -11.2760    2.7370 C.ar  601  7I5601      0.1957
      5  C24       26.7960  -12.9950   12.1550 C.3   601  7I5601      0.1388
      6  C26       25.9020   -8.1200   10.8760 C.ar  601  7I5601     -0.0029
      7  C28       27.8930   -9.1000    9.8300 C.ar  601  7I5601     -0.0029
      8  C01       24.8720  -11.9040    6.8970 C.3   601  7I5601      0.0576
      9  C02       24.9490  -12.6850    8.2740 C.3   601  7I5601      0.1431
     10  C03       23.8760  -12.1640    9.2600 C.3   601  7I5601      0.1787
     11  C04       22.6060  -12.7190    8.6440 C.3   601  7I5601      0.0579
     12  C05       23.6490  -12.2590    6.3530 C.3   601  7I5601      0.0560
     13  C06       23.0870  -13.3520    7.3040 C.3   601  7I5601      0.1214
     14  O07       24.2940  -13.9380    7.8660 O.3   601  7I5601     -0.3562
     15  C08       22.7870  -11.9250    5.1790 C.ar  601  7I5601     -0.0195
     16  C09       25.8590  -10.7360    6.7090 C.ar  601  7I5601     -0.0195
     17  C11       28.1020   -9.6740    6.5240 C.ar  601  7I5601      0.0417
     18  C12       27.5370   -8.3990    6.3220 C.ar  601  7I5601      0.1957
     19  C14       25.2770   -9.4140    6.4930 C.ar  601  7I5601     -0.0009
     20  C16       20.6630  -11.7770    3.8610 C.ar  601  7I5601      0.0417
     21  C18       22.8110  -11.0780    2.8500 C.ar  601  7I5601      0.0417
     22  C19       23.4860  -11.3950    4.0350 C.ar  601  7I5601     -0.0009
     23  O20       20.7610  -10.9280    1.5660 O.3   601  7I5601     -0.2866
     24  O21       28.3210   -7.2790    6.1290 O.3   601  7I5601     -0.2866
     25  C23       26.2340  -10.6470   10.9430 C.ar  601  7I5601      0.0685
     26  C25       25.4490   -9.4740   11.2720 C.ar  601  7I5601      0.0158
     27  C27       27.1170   -7.9020   10.1480 C.ar  601  7I5601     -0.0218
     28  C29       27.4700  -10.4390   10.2070 C.ar  601  7I5601      0.0158
     29  C30       27.6380   -6.3500    9.6880 C.3   601  7I5601      0.0310
     30  S32       24.2180  -12.8530   10.9050 S.O2  601  7I5601      0.0577
     31  O33       23.0910  -12.4530   11.6930 O.2   601  7I5601     -0.1542
     32  O34       24.2790  -14.2850   10.8140 O.2   601  7I5601     -0.1542
     33  N22       25.7910  -12.1520   11.3490 N.pl3 601  7I5601     -0.1925
@<TRIPOS>BOND
     1    23     4    1
     2     4    21   ar
     3     4    20   ar
     4    21    22   ar
     5    20     3   ar
     6    22    15   ar
     7     3    15   ar
     8    15    12    1
     9    24    18    1
    10     2    18   ar
    11     2    19   ar
    12    18    17   ar
    13    12     8    1
    14    12    13    1
    15    19    16   ar
    16    17     1   ar
    17    16     1   ar
    18    16     8    1
    19     8     9    1
    20    13    14    1
    21    13    11    1
    22    14     9    1
    23     9    10    1
    24    11    10    1
    25    10    30    1
    26    29    27    1
    27     7    27   ar
    28     7    28   ar
    29    27     6   ar
    30    28    25   ar
    31    32    30    2
    32     6    26   ar
    33    30    33    1
    34    30    31    2
    35    25    26   ar
    36    25    33    1
    37    33     5    1
