@<TRIPOS>MOLECULE
7RS8_7EI_C601
 46 51 0 0 0
SMALL
GASTEIGER

@<TRIPOS>ATOM
      1 C          22.7790  -10.7080    3.3010 C.ar    1  UNL1        0.0420
      2 C          26.2060  -15.6250   10.1770 C.ar    1  UNL1        0.0690
      3 C          23.2910  -11.6020    6.7810 C.2     1  UNL1        0.0030
      4 C          26.5850  -10.2920    7.2240 C.ar    1  UNL1        0.0029
      5 C          27.4930   -9.3410    7.0090 C.ar    1  UNL1        0.0369
      6 C          26.5390  -15.8610    8.8890 C.ar    1  UNL1        0.0192
      7 C          25.2600  -10.0410    7.1240 C.ar    1  UNL1       -0.0017
      8 C          28.3500  -16.5090   10.6970 C.ar    1  UNL1        0.0382
      9 C          24.5430  -12.8680    8.9970 C.3     1  UNL1        0.1829
     10 C          27.7130  -16.3870    8.5230 C.ar    1  UNL1        0.0382
     11 C          24.3550  -11.0080    7.4000 C.2     1  UNL1        0.0046
     12 C          24.1950  -11.3820    8.8810 C.3     1  UNL1        0.1612
     13 C          21.4510  -11.8390    5.3160 C.ar    1  UNL1        0.0030
     14 F          24.5160  -17.7730    9.1800 F       1  UNL1       -0.1681
     15 C          20.8670  -11.6670    4.1270 C.ar    1  UNL1        0.0420
     16 C          31.0970  -16.7670    9.2220 C.3     1  UNL1        0.2525
     17 C          23.9190  -16.1000   10.7370 C.3     1  UNL1        0.2182
     18 N          25.0720  -15.1280   10.5380 N.pl3   1  UNL1       -0.1856
     19 C          27.6240   -1.7450    5.0900 C.3     1  UNL1        0.0174
     20 C          23.5420  -16.9950    9.5900 C.3     1  UNL1        0.4174
     21 C          28.6670  -16.7340    9.3960 C.ar    1  UNL1        0.1388
     22 C          22.7320  -11.4500    5.5590 C.ar    1  UNL1       -0.0017
     23 C          27.1640  -15.9770   11.0720 C.ar    1  UNL1        0.0192
     24 F          22.5790  -17.7880    9.9450 F       1  UNL1       -0.1681
     25 O          29.8320  -17.2760    8.8730 O.3     1  UNL1       -0.4714
     26 C          22.5250  -12.2400    7.9530 C.3     1  UNL1        0.1394
     27 C          27.1420   -8.0860    6.6790 C.ar    1  UNL1        0.1386
     28 C          28.9120   -0.9160    4.9840 C.3     1  UNL1        0.0029
     29 O          23.6200  -13.4940   11.5270 O.2     1  UNL1       -0.1542
     30 C          23.3220  -13.5070    8.2850 C.3     1  UNL1        0.0625
     31 C          21.5130  -11.1140    3.0990 C.ar    1  UNL1        0.1957
     32 C          29.0550   -5.0030    6.3840 C.3     1  UNL1        0.1200
     33 N          28.9230   -3.7670    5.6370 N.3     1  UNL1       -0.2696
     34 C          27.7660   -2.9590    6.0160 C.3     1  UNL1        0.0722
     35 O          28.1350   -7.1880    6.4810 O.3     1  UNL1       -0.4740
     36 F          23.1260  -16.3740    8.5210 F       1  UNL1       -0.1681
     37 C          27.7950   -5.8490    6.3290 C.3     1  UNL1        0.2226
     38 O          22.8000  -11.4280    9.0680 O.3     1  UNL1       -0.3481
     39 S          24.7970  -13.4410   10.6430 S.O2    1  UNL1        0.0582
     40 C          23.3720  -10.8820    4.5040 C.ar    1  UNL1        0.0030
     41 C          25.8210   -7.8380    6.5670 C.ar    1  UNL1        0.0369
     42 C          30.0430   -1.5110    5.8210 C.3     1  UNL1        0.0174
     43 O          20.8720  -10.9750    1.9210 O.3     1  UNL1       -0.2866
     44 C          30.1880   -3.0310    5.6510 C.3     1  UNL1        0.0722
     45 C          24.9150   -8.7860    6.7910 C.ar    1  UNL1        0.0029
     46 O          26.1210  -13.0740   11.1620 O.2     1  UNL1       -0.1542
@<TRIPOS>BOND
     1     5     4   ar
     2     6     2   ar
     3     7     4   ar
     4    10     6   ar
     5    11     3    2
     6    11     7    1
     7    12    11    1
     8    12     9    1
     9    15    13   ar
    10    18    17    1
    11    18     2    1
    12    20    14    1
    13    20    17    1
    14    21    10   ar
    15    21     8   ar
    16    22    13   ar
    17    22     3    1
    18    23     2   ar
    19    23     8   ar
    20    24    20    1
    21    25    21    1
    22    25    16    1
    23    26     3    1
    24    27     5   ar
    25    28    19    1
    26    26    30    1
    27     9    30    1
    28    31    15   ar
    29    31     1   ar
    30    33    32    1
    31    34    19    1
    32    34    33    1
    33    35    27    1
    34    36    20    1
    35    37    35    1
    36    37    32    1
    37    38    26    1
    38    38    12    1
    39    39    18    1
    40    39     9    1
    41    39    29    2
    42    40    22   ar
    43    40     1   ar
    44    41    27   ar
    45    42    28    1
    46    43    31    1
    47    44    42    1
    48    44    33    1
    49    45    41   ar
    50    45     7   ar
    51    46    39    2
