@<TRIPOS>MOLECULE
7UJC_RAL_B601
 34 38 0 0 0
SMALL
GASTEIGER

@<TRIPOS>ATOM
      1 C          23.7410  -11.3820    3.8650 C.ar    1  UNL1        0.0039
      2 C          22.9010  -11.1080    2.8320 C.ar    1  UNL1        0.0421
      3 C          21.5350  -11.3210    2.9380 C.ar    1  UNL1        0.1962
      4 O          20.7480  -10.9900    1.8890 O.3     1  UNL1       -0.2866
      5 C          21.0070  -11.8220    4.1070 C.ar    1  UNL1        0.0485
      6 C          21.8550  -12.0980    5.1610 C.ar    1  UNL1        0.0327
      7 S          21.4070  -12.7480    6.7070 S.2     1  UNL1       -0.0867
      8 C          23.0480  -12.7940    7.2490 C.ar    1  UNL1        0.0325
      9 C          23.3460  -13.3340    8.5880 C.ar    1  UNL1        0.0063
     10 C          22.7560  -14.4980    9.0480 C.ar    1  UNL1        0.0038
     11 C          23.0560  -15.0200   10.2940 C.ar    1  UNL1        0.0420
     12 C          23.9680  -14.3850   11.1130 C.ar    1  UNL1        0.1957
     13 O          24.2890  -14.8860   12.3400 O.3     1  UNL1       -0.2866
     14 C          24.5630  -13.2170   10.6750 C.ar    1  UNL1        0.0420
     15 C          24.2510  -12.7130    9.4270 C.ar    1  UNL1        0.0038
     16 C          23.2370  -11.9040    5.0600 C.ar    1  UNL1        0.0098
     17 C          23.9010  -12.2950    6.2990 C.ar    1  UNL1        0.0454
     18 C          25.3170  -12.1540    6.5910 C.2     1  UNL1        0.1960
     19 O          25.9830  -13.1090    6.7500 O.2     1  UNL1       -0.2866
     20 C          25.9350  -10.8150    6.7540 C.ar    1  UNL1        0.0392
     21 C          27.2970  -10.5890    6.7320 C.ar    1  UNL1        0.0063
     22 C          27.8190   -9.3180    6.8730 C.ar    1  UNL1        0.0370
     23 C          26.9600   -8.2490    7.0120 C.ar    1  UNL1        0.1386
     24 C          25.5930   -8.4660    7.0400 C.ar    1  UNL1        0.0370
     25 C          25.0910   -9.7330    6.8780 C.ar    1  UNL1        0.0063
     26 O          27.3700   -6.9630    7.1890 O.3     1  UNL1       -0.4740
     27 C          28.6410   -6.5810    6.7100 C.3     1  UNL1        0.2226
     28 C          28.8780   -5.1770    7.1650 C.3     1  UNL1        0.1200
     29 N          28.2530   -4.1560    6.3410 N.3     1  UNL1       -0.2696
     30 C          28.8140   -2.8520    6.6520 C.3     1  UNL1        0.0722
     31 C          28.1750   -1.7600    5.8580 C.3     1  UNL1        0.0174
     32 C          26.6790   -1.7650    6.0760 C.3     1  UNL1        0.0029
     33 C          26.1320   -3.1170    5.7070 C.3     1  UNL1        0.0174
     34 C          26.8180   -4.1680    6.5190 C.3     1  UNL1        0.0722
@<TRIPOS>BOND
     1     2     1   ar
     2     3     2   ar
     3     4     3    1
     4     5     3   ar
     5     6     5   ar
     6     7     6   ar
     7     8     7   ar
     8     9     8    1
     9    10     9   ar
    10    11    10   ar
    11    12    11   ar
    12    13    12    1
    13    14    12   ar
    14    15    14   ar
    15    15     9   ar
    16    16     6   ar
    17    16     1   ar
    18    17    16   ar
    19    17     8   ar
    20    18    17    1
    21    19    18    2
    22    20    18    1
    23    21    20   ar
    24    22    21   ar
    25    23    22   ar
    26    24    23   ar
    27    25    24   ar
    28    25    20   ar
    29    26    23    1
    30    27    26    1
    31    28    27    1
    32    29    28    1
    33    30    29    1
    34    31    30    1
    35    32    31    1
    36    33    32    1
    37    34    33    1
    38    34    29    1
