@<TRIPOS>MOLECULE
7UJC_RAL_B601
 34 38 0 0 0
SMALL
GASTEIGER

@<TRIPOS>ATOM
      1 C          23.6960  -11.3120    3.8630 C.ar    1  UNL1        0.0039
      2 C          22.8480  -11.0540    2.8320 C.ar    1  UNL1        0.0421
      3 C          21.4850  -11.2810    2.9470 C.ar    1  UNL1        0.1962
      4 O          20.6890  -10.9660    1.9000 O.3     1  UNL1       -0.2866
      5 C          20.9680  -11.7780    4.1230 C.ar    1  UNL1        0.0485
      6 C          21.8240  -12.0370    5.1740 C.ar    1  UNL1        0.0327
      7 S          21.3920  -12.6790    6.7280 S.2     1  UNL1       -0.0867
      8 C          23.0360  -12.7040    7.2610 C.ar    1  UNL1        0.0325
      9 C          23.3470  -13.2310    8.6030 C.ar    1  UNL1        0.0063
     10 C          22.7710  -14.3960    9.0750 C.ar    1  UNL1        0.0038
     11 C          23.0830  -14.9050   10.3240 C.ar    1  UNL1        0.0420
     12 C          23.9930  -14.2550   11.1330 C.ar    1  UNL1        0.1957
     13 O          24.3260  -14.7420   12.3610 O.3     1  UNL1       -0.2866
     14 C          24.5740  -13.0850   10.6820 C.ar    1  UNL1        0.0420
     15 C          24.2500  -12.5930    9.4320 C.ar    1  UNL1        0.0038
     16 C          23.2030  -11.8290    5.0640 C.ar    1  UNL1        0.0098
     17 C          23.8780  -12.2040    6.3030 C.ar    1  UNL1        0.0454
     18 C          25.2940  -12.0460    6.5850 C.2     1  UNL1        0.1960
     19 O          25.9720  -12.9930    6.7490 O.2     1  UNL1       -0.2866
     20 C          25.9000  -10.6990    6.7350 C.ar    1  UNL1        0.0392
     21 C          27.2590  -10.4590    6.7040 C.ar    1  UNL1        0.0063
     22 C          27.7690   -9.1820    6.8320 C.ar    1  UNL1        0.0370
     23 C          26.8990   -8.1210    6.9670 C.ar    1  UNL1        0.1386
     24 C          25.5350   -8.3520    7.0040 C.ar    1  UNL1        0.0370
     25 C          25.0450   -9.6250    6.8550 C.ar    1  UNL1        0.0063
     26 O          27.2970   -6.8300    7.1320 O.3     1  UNL1       -0.4740
     27 C          28.5610   -6.4380    6.6420 C.3     1  UNL1        0.2226
     28 C          28.7860   -5.0280    7.0850 C.3     1  UNL1        0.1200
     29 N          28.1470   -4.0200    6.2570 N.3     1  UNL1       -0.2696
     30 C          28.6960   -2.7080    6.5540 C.3     1  UNL1        0.0722
     31 C          28.0420   -1.6290    5.7560 C.3     1  UNL1        0.0174
     32 C          26.5470   -1.6480    5.9810 C.3     1  UNL1        0.0029
     33 C          26.0110   -3.0080    5.6270 C.3     1  UNL1        0.0174
     34 C          26.7130   -4.0460    6.4430 C.3     1  UNL1        0.0722
@<TRIPOS>BOND
     1     2     1   ar
     2     3     2   ar
     3     4     3    1
     4     5     3   ar
     5     6     5   ar
     6     7     6   ar
     7     8     7   ar
     8     9     8    1
     9    10     9   ar
    10    11    10   ar
    11    12    11   ar
    12    13    12    1
    13    14    12   ar
    14    15    14   ar
    15    15     9   ar
    16    16     6   ar
    17    16     1   ar
    18    17    16   ar
    19    17     8   ar
    20    18    17    1
    21    19    18    2
    22    20    18    1
    23    21    20   ar
    24    22    21   ar
    25    23    22   ar
    26    24    23   ar
    27    25    24   ar
    28    25    20   ar
    29    26    23    1
    30    27    26    1
    31    28    27    1
    32    29    28    1
    33    30    29    1
    34    31    30    1
    35    32    31    1
    36    33    32    1
    37    34    33    1
    38    34    29    1
