@<TRIPOS>MOLECULE
8DUC_TU9_A601
 36 41 0 0 0
SMALL
GASTEIGER

@<TRIPOS>ATOM
      1 N          24.1630  -12.9900    7.0160 N.am    1  UNL1       -0.2730
      2 C          21.3120  -11.8530    3.9850 C.ar    1  UNL1        0.0376
      3 C          22.3660  -12.0740    5.0940 C.ar    1  UNL1       -0.0195
      4 C          23.5840  -11.9450    4.8470 C.ar    1  UNL1       -0.0038
      5 C          21.8110  -12.5690    6.3950 C.3     1  UNL1        0.0444
      6 C          22.7680  -12.9500    7.4860 C.3     1  UNL1        0.0652
      7 C          25.1970  -13.8110    7.6360 C.2     1  UNL1        0.2494
      8 C          25.2860  -16.1370   10.6840 C.ar    1  UNL1        0.0001
      9 C          23.5470  -16.8640    9.0580 C.ar    1  UNL1        0.0001
     10 C          25.2260  -10.8710    6.3270 C.ar    1  UNL1        0.0001
     11 C          26.4540   -8.4200    6.9770 C.ar    1  UNL1        0.1385
     12 C          27.2810   -9.6620    6.8190 C.ar    1  UNL1        0.0366
     13 C          26.7160  -10.7900    6.5190 C.ar    1  UNL1        0.0008
     14 C          28.7890   -5.2840    6.9550 C.3     1  UNL1        0.0611
     15 C          28.6040   -3.3090    5.8320 C.3     1  UNL1        0.0723
     16 C          30.6110   -3.4200    5.1860 C.3     1  UNL1        0.0721
     17 C          23.9950  -11.4810    3.4590 C.ar    1  UNL1        0.0006
     18 C          24.9180  -14.8620    8.7050 C.ar    1  UNL1        0.0536
     19 C          25.6220  -14.9660    9.7940 C.ar    1  UNL1        0.0045
     20 C          24.3460  -16.9770   10.3460 C.ar    1  UNL1        0.0000
     21 C          23.8410  -15.8660    8.2970 C.ar    1  UNL1        0.0045
     22 C          24.4660   -9.8280    6.4930 C.ar    1  UNL1        0.0008
     23 C          25.1600   -8.5180    6.8480 C.ar    1  UNL1        0.0366
     24 C          23.1270  -11.2670    2.5340 C.ar    1  UNL1        0.0417
     25 C          27.6220   -6.2680    6.4220 C.3     1  UNL1        0.2067
     26 C          28.4710   -3.9490    7.1840 C.3     1  UNL1        0.0224
     27 C          29.8140   -5.2790    5.8450 C.3     1  UNL1        0.0758
     28 C          31.7690   -4.0450    4.3740 C.3     1  UNL1        0.0188
     29 C          21.6700  -11.4530    2.7660 C.ar    1  UNL1        0.1954
     30 C          22.4280  -13.4670    8.9020 C.3     1  UNL1        0.0203
     31 C          22.1810  -12.0710    8.6180 C.3     1  UNL1        0.0203
     32 C          24.6400  -12.1630    5.9260 C.3     1  UNL1        0.1203
     33 N          29.6000   -4.0720    5.1750 N.3     1  UNL1       -0.2726
     34 O          20.7590  -11.2100    1.7740 O.3     1  UNL1       -0.2866
     35 O          26.2820  -13.7780    7.2040 O.2     1  UNL1       -0.2699
     36 O          27.1010   -7.2000    7.3570 O.3     1  UNL1       -0.4754
@<TRIPOS>BOND
     1     3     2   ar
     2     4     3   ar
     3     5     3    1
     4     6     5    1
     5     6     1    1
     6     7     1   am
     7    12    11   ar
     8    13    10   ar
     9    13    12   ar
    10    17     4   ar
    11    18     7    1
    12    19    18   ar
    13    19     8   ar
    14    20     9   ar
    15    20     8   ar
    16    21     9   ar
    17    21    18   ar
    18    22    10   ar
    19    23    22   ar
    20    23    11   ar
    21    24    17   ar
    22    14    25    1
    23    26    15    1
    24    26    14    1
    25    27    14    1
    26    28    16    1
    27    29     2   ar
    28    29    24   ar
    29    30     6    1
    30    31    30    1
    31    31     6    1
    32    32     4    1
    33    32     1    1
    34    32    10    1
    35    33    16    1
    36    33    27    1
    37    33    15    1
    38    34    29    1
    39    35     7    2
    40    36    11    1
    41    36    25    1
