@<TRIPOS>MOLECULE
8DUD_TV3_A601
 37 42 0 0 0
SMALL
GASTEIGER

@<TRIPOS>ATOM
      1 N          24.0710  -12.9410    6.9420 N.am    1  UNL1       -0.2730
      2 C          21.1300  -11.7420    3.9120 C.ar    1  UNL1        0.0376
      3 C          22.1450  -11.9760    5.0280 C.ar    1  UNL1       -0.0195
      4 C          23.4520  -11.8320    4.8260 C.ar    1  UNL1       -0.0038
      5 C          21.6120  -12.5180    6.4570 C.3     1  UNL1        0.0444
      6 C          22.7730  -12.8780    7.4540 C.3     1  UNL1        0.0652
      7 C          25.1410  -13.7590    7.5500 C.2     1  UNL1        0.2494
      8 C          25.2230  -15.8760   10.7800 C.ar    1  UNL1        0.0001
      9 C          23.4670  -16.6950    9.2420 C.ar    1  UNL1        0.0001
     10 C          25.2310  -10.9020    6.4020 C.ar    1  UNL1        0.0001
     11 C          26.4390   -8.5500    7.1970 C.ar    1  UNL1        0.1385
     12 C          24.9870   -8.5800    6.8050 C.ar    1  UNL1        0.0366
     13 C          24.3950   -9.6600    6.4270 C.ar    1  UNL1        0.0008
     14 C          22.2500  -11.9520    8.5740 C.3     1  UNL1        0.0203
     15 C          27.9360   -5.2170    6.7880 C.3     1  UNL1        0.0611
     16 C          28.4550   -3.6130    5.3560 C.3     1  UNL1        0.0723
     17 C          23.9030  -11.3770    3.4610 C.ar    1  UNL1        0.0006
     18 C          24.8300  -14.7670    8.6910 C.ar    1  UNL1        0.0536
     19 C          25.5400  -14.7860    9.7770 C.ar    1  UNL1        0.0045
     20 C          24.2620  -16.7180   10.5350 C.ar    1  UNL1        0.0000
     21 C          23.7420  -15.7810    8.3640 C.ar    1  UNL1        0.0045
     22 C          26.4940  -10.9410    6.7540 C.ar    1  UNL1        0.0008
     23 C          27.1640   -9.6410    7.1890 C.ar    1  UNL1        0.0366
     24 C          23.0260  -11.1220    2.5040 C.ar    1  UNL1        0.0417
     25 C          22.2550  -13.3930    8.7970 C.3     1  UNL1        0.0203
     26 C          28.1030   -6.7750    7.0770 C.3     1  UNL1        0.2067
     27 C          28.1040   -5.0970    5.4010 C.3     1  UNL1        0.0224
     28 C          28.8650   -4.2600    7.4980 C.3     1  UNL1        0.0758
     29 C          21.5240  -11.3200    2.7120 C.ar    1  UNL1        0.1954
     30 C          29.5810   -2.2930    6.8340 C.3     1  UNL1        0.0721
     31 C          29.3280   -1.1900    5.7540 C.3     1  UNL1        0.0173
     32 C          30.4910   -0.2110    5.6630 C.3     1  UNL1        0.0015
     33 C          24.4610  -12.1200    5.8990 C.3     1  UNL1        0.1203
     34 N          29.2860   -3.4480    6.5080 N.3     1  UNL1       -0.2726
     35 O          20.6460  -11.0610    1.6790 O.3     1  UNL1       -0.2866
     36 O          26.2260  -13.7710    7.1290 O.2     1  UNL1       -0.2699
     37 O          26.8810   -7.2660    7.6000 O.3     1  UNL1       -0.4754
@<TRIPOS>BOND
     1     3     2   ar
     2     4     3   ar
     3     5     3    1
     4     6     5    1
     5     6     1    1
     6     7     1   am
     7    12    11   ar
     8    13    10   ar
     9    13    12   ar
    10    14     6    1
    11    17     4   ar
    12    18     7    1
    13    19    18   ar
    14    19     8   ar
    15    20     9   ar
    16    20     8   ar
    17    21     9   ar
    18    21    18   ar
    19    22    10   ar
    20    23    22   ar
    21    23    11   ar
    22    24    17   ar
    23    25    14    1
    24    25     6    1
    25    15    26    1
    26    27    16    1
    27    27    15    1
    28    28    15    1
    29    29     2   ar
    30    29    24   ar
    31    31    30    1
    32    32    31    1
    33    33     4    1
    34    33    10    1
    35    33     1    1
    36    34    16    1
    37    34    30    1
    38    34    28    1
    39    35    29    1
    40    36     7    2
    41    37    11    1
    42    37    26    1
