@<TRIPOS>MOLECULE
8VYT_A1AHV_A600
 56 61 0 0 0
SMALL
GASTEIGER

@<TRIPOS>ATOM
      1  C10       20.8530  -11.8010    4.0740 C.ar  600  A1A600     -0.0199
      2  C13       22.9620  -11.3630    3.0280 C.ar  600  A1A600     -0.0199
      3  C15       23.0740  -13.8900    7.3300 C.3   600  A1A600      0.0725
      4  C17       24.7100  -14.0080    8.6330 C.3   600  A1A600      0.1252
      5  C20       26.4000  -12.0720   11.3400 C.3   600  A1A600      0.0386
      6  C21       27.8810  -12.2630   11.5810 C.3   600  A1A600     -0.0084
      7  C22       28.0060  -13.5840   12.3460 C.ar  600  A1A600     -0.0232
      8  C24       26.6100  -15.5080   12.8780 C.ar  600  A1A600     -0.0388
      9  C26       28.9090  -15.3790   13.6950 C.ar  600  A1A600     -0.0614
     10  C02       27.7530   -9.2250    6.7260 C.ar  600  A1A600      0.1169
     11  C03       28.1810  -10.4950    6.9780 C.ar  600  A1A600     -0.0199
     12  C04       27.2530  -11.4950    7.1590 C.ar  600  A1A600     -0.0544
     13  C05       25.9150  -11.1880    7.0290 C.ar  600  A1A600     -0.0365
     14  C06       24.9790  -12.3230    7.2430 C.3   600  A1A600      0.0496
     15  C07       23.5950  -12.8440    6.3990 C.3   600  A1A600      0.0478
     16  C08       22.8820  -12.2540    5.2100 C.ar  600  A1A600     -0.0366
     17  C09       21.5040  -12.2420    5.1980 C.ar  600  A1A600     -0.0545
     18  C11       21.5730  -11.3630    2.9920 C.ar  600  A1A600      0.1169
     19  C14       23.6200  -11.8080    4.1500 C.ar  600  A1A600     -0.0545
     20  C16       23.9020  -14.6480    7.8360 C.3   600  A1A600      0.0008
     21  C23       26.7840  -14.2570   12.2600 C.ar  600  A1A600      0.0541
     22  C25       27.6780  -16.0580   13.5940 C.ar  600  A1A600     -0.0599
     23  C27       29.0810  -14.1420   13.0710 C.ar  600  A1A600     -0.0567
     24  C30       24.5300  -12.7000    8.5700 C.3   600  A1A600      0.0944
     25  C32       25.4690   -9.9090    6.8190 C.ar  600  A1A600     -0.0544
     26  C33       26.4010   -8.9150    6.6460 C.ar  600  A1A600     -0.0199
     27  N19       25.8670  -13.4310   11.4300 N.pl3 600  A1A600     -0.2065
     28  O01       28.6720   -8.2220    6.5660 O.3   600  A1A600     -0.5068
     29  O12       20.9030  -10.8940    1.8540 O.3   600  A1A600     -0.5068
     30  O28       23.9420  -15.3090   11.1300 O.2   600  A1A600     -0.1546
     31  O29       23.3750  -13.0060   11.1940 O.2   600  A1A600     -0.1546
     32  O31       22.9450  -12.8560    8.6320 O.3   600  A1A600     -0.3695
     33  S18       24.4120  -13.9580   10.7350 S.O2  600  A1A600      0.0509
     34 H101       19.9240  -11.7980    4.0450 H     600  A1A600      0.0654
     35 H131       23.4460  -11.0630    2.2930 H     600  A1A600      0.0654
     36 H151       22.2960  -14.3700    7.0060 H     600  A1A600      0.0606
     37 H171       25.5140  -14.4800    8.3630 H     600  A1A600      0.0582
     38 H202       26.0180  -11.5180   12.0390 H     600  A1A600      0.0485
     39 H201       26.2510  -11.7140   10.4500 H     600  A1A600      0.0485
     40 H211       28.2160  -11.5380   12.1300 H     600  A1A600      0.0330
     41 H212       28.3410  -12.3360   10.7310 H     600  A1A600      0.0330
     42 H241       25.8020  -15.9620   12.8120 H     600  A1A600      0.0637
     43 H261       29.6080  -15.7540   14.1790 H     600  A1A600      0.0618
     44 H031       29.0910  -10.6820    7.0270 H     600  A1A600      0.0654
     45 H041       27.5240  -12.3600    7.3660 H     600  A1A600      0.0622
     46 H091       21.0230  -12.5290    5.9390 H     600  A1A600      0.0622
     47 H141       24.5490  -11.8040    4.1880 H     600  A1A600      0.0622
     48 H161       24.4180  -15.0690    7.1320 H     600  A1A600      0.0310
     49 H162       23.4360  -15.3330    8.3410 H     600  A1A600      0.0310
     50 H251       27.5740  -16.8830   14.0100 H     600  A1A600      0.0618
     51 H271       29.8930  -13.6910   13.1320 H     600  A1A600      0.0621
     52 H301       24.8070  -12.0710    9.2530 H     600  A1A600      0.0625
     53 H321       24.5590   -9.7190    6.7930 H     600  A1A600      0.0622
     54 H331       26.1300   -8.0410    6.4790 H     600  A1A600      0.0654
     55 H011       28.3030   -7.4560    6.6690 H     600  A1A600      0.2921
     56 H121       20.9690  -10.0360    1.8280 H     600  A1A600      0.2921
@<TRIPOS>BOND
     1    56    29    1
     2    29    18    1
     3    35     2    1
     4    18     2   ar
     5    18     1   ar
     6     2    19   ar
     7    34     1    1
     8     1    17   ar
     9    19    47    1
    10    19    16   ar
    11    17    16   ar
    12    17    46    1
    13    16    15    1
    14    15    14    1
    15    15     3    1
    16    54    26    1
    17    28    55    1
    18    28    10    1
    19    26    10   ar
    20    26    25   ar
    21    10    11   ar
    22    53    25    1
    23    25    13   ar
    24    11    44    1
    25    11    12   ar
    26    36     3    1
    27    13    12   ar
    28    13    14    1
    29    48    20    1
    30    12    45    1
    31    14    24    1
    32     3    20    1
    33     3    32    1
    34    20    49    1
    35    20     4    1
    36    37     4    1
    37    24    32    1
    38    24     4    1
    39    24    52    1
    40     4    33    1
    41    39     5    1
    42    41     6    1
    43    33    30    2
    44    33    31    2
    45    33    27    1
    46     5    27    1
    47     5     6    1
    48     5    38    1
    49    27    21    1
    50     6    40    1
    51     6     7    1
    52    21     7   ar
    53    21     8   ar
    54     7    23   ar
    55    42     8    1
    56     8    22   ar
    57    23    51    1
    58    23     9   ar
    59    22     9   ar
    60    22    50    1
    61     9    43    1
