@<TRIPOS>MOLECULE
8VYT_A1AHV_D600
 56 61 0 0 0
SMALL
GASTEIGER

@<TRIPOS>ATOM
      1  C10       20.7780  -11.5900    4.1800 C.ar  600  A1A600     -0.0199
      2  C13       22.8530  -11.0470    3.1150 C.ar  600  A1A600     -0.0199
      3  C15       23.1400  -13.4160    7.4770 C.3   600  A1A600      0.0725
      4  C17       24.6440  -13.0090    8.8260 C.3   600  A1A600      0.1252
      5  C20       26.4350  -11.6010   11.0570 C.3   600  A1A600      0.0386
      6  C21       27.9300  -11.6190   11.0950 C.3   600  A1A600     -0.0084
      7  C22       28.2870  -12.7690   12.0240 C.ar  600  A1A600     -0.0232
      8  C24       27.2540  -14.7400   12.9790 C.ar  600  A1A600     -0.0388
      9  C26       29.5760  -14.1910   13.4760 C.ar  600  A1A600     -0.0614
     10  C02       27.4530   -8.6200    6.5140 C.ar  600  A1A600      0.1169
     11  C03       27.7340   -9.9620    6.6860 C.ar  600  A1A600     -0.0199
     12  C04       26.7010  -10.8310    7.0100 C.ar  600  A1A600     -0.0544
     13  C05       25.4220  -10.3140    7.1980 C.ar  600  A1A600     -0.0365
     14  C06       24.1910  -11.1390    7.5790 C.3   600  A1A600      0.0496
     15  C07       23.6450  -12.3790    6.5110 C.3   600  A1A600      0.0478
     16  C08       22.8350  -11.9350    5.3140 C.ar  600  A1A600     -0.0366
     17  C09       21.4380  -12.0080    5.2950 C.ar  600  A1A600     -0.0545
     18  C11       21.4890  -11.1360    3.0970 C.ar  600  A1A600      0.1169
     19  C14       23.5430  -11.4430    4.2310 C.ar  600  A1A600     -0.0545
     20  C16       24.0610  -13.9280    8.1120 C.3   600  A1A600      0.0008
     21  C23       27.1730  -13.5920   12.1600 C.ar  600  A1A600      0.0541
     22  C25       28.4600  -15.0400   13.6190 C.ar  600  A1A600     -0.0599
     23  C27       29.5010  -13.0530   12.6740 C.ar  600  A1A600     -0.0567
     24  C30       24.0060  -11.8670    8.8630 C.3   600  A1A600      0.0944
     25  C32       25.1700   -8.9790    7.0340 C.ar  600  A1A600     -0.0544
     26  C33       26.1750   -8.1260    6.6940 C.ar  600  A1A600     -0.0199
     27  N19       26.0940  -12.9590   11.3570 N.pl3 600  A1A600     -0.2065
     28  O01       28.4340   -7.6950    6.1630 O.3   600  A1A600     -0.5068
     29  O12       20.8260  -10.7760    1.9670 O.3   600  A1A600     -0.5068
     30  O28       24.4810  -15.0480   11.0010 O.2   600  A1A600     -0.1546
     31  O29       23.4780  -13.0200   11.5010 O.2   600  A1A600     -0.1546
     32  O31       22.5690  -12.4620    8.6840 O.3   600  A1A600     -0.3695
     33  S18       24.6660  -13.5870   10.8540 S.O2  600  A1A600      0.0509
     34 H101       19.8490  -11.6140    4.1510 H     600  A1A600      0.0654
     35 H131       23.3110  -10.7200    2.3740 H     600  A1A600      0.0654
     36 H151       22.4820  -14.0270    7.1120 H     600  A1A600      0.0606
     37 H171       25.5250  -12.9130    8.4340 H     600  A1A600      0.0582
     38 H202       26.0890  -11.0090   11.7440 H     600  A1A600      0.0485
     39 H201       26.1250  -11.3660   10.1680 H     600  A1A600      0.0485
     40 H211       28.2570  -10.7850   11.4670 H     600  A1A600      0.0330
     41 H212       28.2770  -11.7960   10.2070 H     600  A1A600      0.0330
     42 H241       26.5130  -15.2900   13.0910 H     600  A1A600      0.0637
     43 H261       30.3690  -14.3910   13.9190 H     600  A1A600      0.0618
     44 H031       28.6030  -10.2800    6.5870 H     600  A1A600      0.0654
     45 H041       26.8600  -11.7440    7.0990 H     600  A1A600      0.0622
     46 H091       20.9690  -12.3350    6.0300 H     600  A1A600      0.0622
     47 H141       24.4700  -11.3800    4.2620 H     600  A1A600      0.0622
     48 H161       24.7020  -14.3210    7.5000 H     600  A1A600      0.0310
     49 H162       23.7100  -14.6200    8.6940 H     600  A1A600      0.0310
     50 H251       28.5250  -15.8060   14.1440 H     600  A1A600      0.0618
     51 H271       30.2380  -12.4940   12.5720 H     600  A1A600      0.0621
     52 H301       24.1060  -11.3350    9.6680 H     600  A1A600      0.0625
     53 H321       24.3080   -8.6520    7.1560 H     600  A1A600      0.0622
     54 H331       26.0030   -7.2190    6.5820 H     600  A1A600      0.0654
     55 H011       28.0770   -6.9210    6.1880 H     600  A1A600      0.2921
     56 H121       20.3430  -10.0770    2.1210 H     600  A1A600      0.2921
@<TRIPOS>BOND
     1    29    56    1
     2    29    18    1
     3    35     2    1
     4    18     2   ar
     5    18     1   ar
     6     2    19   ar
     7    34     1    1
     8     1    17   ar
     9    19    47    1
    10    19    16   ar
    11    17    16   ar
    12    17    46    1
    13    16    15    1
    14    28    55    1
    15    28    10    1
    16    15     3    1
    17    15    14    1
    18    10    11   ar
    19    10    26   ar
    20    54    26    1
    21    44    11    1
    22    11    12   ar
    23    26    25   ar
    24    12    45    1
    25    12    13   ar
    26    25    53    1
    27    25    13   ar
    28    36     3    1
    29    13    14    1
    30     3    20    1
    31     3    32    1
    32    48    20    1
    33    14    24    1
    34    20    49    1
    35    20     4    1
    36    37     4    1
    37    32    24    1
    38     4    24    1
    39     4    33    1
    40    24    52    1
    41    39     5    1
    42    41     6    1
    43    33    30    2
    44    33    27    1
    45    33    31    2
    46     5     6    1
    47     5    27    1
    48     5    38    1
    49     6    40    1
    50     6     7    1
    51    27    21    1
    52     7    21   ar
    53     7    23   ar
    54    21     8   ar
    55    51    23    1
    56    23     9   ar
    57     8    42    1
    58     8    22   ar
    59     9    22   ar
    60     9    43    1
    61    22    50    1
