@<TRIPOS>MOLECULE
8W03_OBT_C600
 54 58 0 0 0
SMALL
GASTEIGER

@<TRIPOS>ATOM
      1  C01       26.2930   -8.5050    6.4840 C.ar  600  OBT600     -0.0196
      2  C02       27.5970   -8.7890    6.2550 C.ar  600  OBT600      0.1169
      3  C03       27.9970  -10.0730    6.3100 C.ar  600  OBT600     -0.0196
      4  C04       27.1110  -11.0340    6.5760 C.ar  600  OBT600     -0.0508
      5  C05       25.7960  -10.7600    6.8160 C.ar  600  OBT600     -0.0188
      6  C06       25.4280   -9.4790    6.7750 C.ar  600  OBT600     -0.0508
      7  O01       28.4970   -7.8160    5.9520 O.3   600  OBT600     -0.5068
      8  C07       24.9270  -11.7520    7.0830 C.2   600  OBT600     -0.0036
      9  C08       23.7930  -12.2230    6.4920 C.2   600  OBT600     -0.0054
     10  C09       23.4490  -13.4240    7.3800 C.3   600  OBT600      0.0873
     11  C10       23.0490  -11.8390    5.4340 C.ar  600  OBT600     -0.0188
     12  C11       25.2560  -12.6940    8.2400 C.3   600  OBT600      0.1092
     13  C12       21.6970  -11.8730    5.4040 C.ar  600  OBT600     -0.0508
     14  C13       21.0030  -11.5400    4.3070 C.ar  600  OBT600     -0.0196
     15  C14       21.6120  -11.1650    3.1450 C.ar  600  OBT600      0.1169
     16  C15       22.9560  -11.1230    3.1810 C.ar  600  OBT600     -0.0196
     17  C16       23.6480  -11.4910    4.2850 C.ar  600  OBT600     -0.0508
     18  O02       20.9030  -10.8080    2.0110 O.3   600  OBT600     -0.5068
     19  C17       24.3140  -12.4150    9.3890 C.3   600  OBT600      0.1288
     20  C18       22.9820  -12.8800    8.7370 C.3   600  OBT600      0.0044
     21  S01       24.7840  -13.2560   10.9770 S.O2  600  OBT600      0.0512
     22  O03       24.7180  -13.9180    7.7590 O.3   600  OBT600     -0.3621
     23  N01       26.1040  -14.2780   10.9370 N.pl3 600  OBT600     -0.2055
     24  O04       23.5590  -14.0070   11.1310 O.2   600  OBT600     -0.1546
     25  O05       24.9180  -11.9800   11.7130 O.2   600  OBT600     -0.1546
     26  H1        25.9490   -7.4570    6.4260 H     600  OBT600      0.0654
     27  H2        29.0580  -10.3240    6.1360 H     600  OBT600      0.0654
     28  H3        27.5070  -12.0600    6.5890 H     600  OBT600      0.0625
     29  H4        24.3940   -9.1640    6.9810 H     600  OBT600      0.0625
     30  H5        28.1230   -7.1930    5.2970 H     600  OBT600      0.2921
     31  H6        22.8810  -14.2530    6.9110 H     600  OBT600      0.0647
     32  H7        26.3250  -12.7660    8.5170 H     600  OBT600      0.0667
     33  H8        21.1100  -12.1800    6.2860 H     600  OBT600      0.0625
     34  H9        19.9000  -11.5680    4.3390 H     600  OBT600      0.0654
     35  H10       23.5020  -10.7780    2.2880 H     600  OBT600      0.0654
     36  H11       24.7470  -11.4910    4.1900 H     600  OBT600      0.0625
     37  H12       20.9170   -9.8380    1.9440 H     600  OBT600      0.2921
     38  C19       27.0080  -13.8230   11.7420 C.3   600  OBT600      0.0520
     39  H13       24.2520  -11.3240    9.6160 H     600  OBT600      0.0585
     40  H14       22.2610  -12.0450    8.5860 H     600  OBT600      0.0313
     41  H15       22.4770  -13.6840    9.3170 H     600  OBT600      0.0313
     42  C21       26.4330  -15.3460   10.4560 C.ar  600  OBT600      0.0510
     43  C22       27.3780  -15.5380    9.5310 C.ar  600  OBT600     -0.0377
     44  C23       27.5860  -16.7370    8.9890 C.ar  600  OBT600     -0.0416
     45  C24       26.8660  -17.7940    9.3850 C.ar  600  OBT600      0.0411
     46  C25       25.9430  -17.6280   10.3510 C.ar  600  OBT600     -0.0416
     47  C26       25.7420  -16.4050   10.8570 C.ar  600  OBT600     -0.0377
     48  H16       28.0190  -14.1630   11.4120 H     600  OBT600      0.0498
     49  H17       26.5340  -13.2150   12.5480 H     600  OBT600      0.0498
     50  H18       28.0360  -14.7370    9.1640 H     600  OBT600      0.0637
     51 CL1        27.1780  -19.3350    8.6720 Cl    600  OBT600     -0.0835
     52  H19       28.3580  -16.8530    8.2090 H     600  OBT600      0.0633
     53  H21       25.3570  -18.4840   10.7270 H     600  OBT600      0.0633
     54  H22       24.9620  -16.3310   11.6310 H     600  OBT600      0.0637
@<TRIPOS>BOND
     1    37    18    1
     2    18    15    1
     3    35    16    1
     4    15    16   ar
     5    15    14   ar
     6    16    17   ar
     7    36    17    1
     8    17    11   ar
     9    14    34    1
    10    14    13   ar
    11    30     7    1
    12    13    11   ar
    13    13    33    1
    14    11     9    1
    15     7     2    1
    16    27     3    1
    17     2     3   ar
    18     2     1   ar
    19     3     4   ar
    20    26     1    1
    21     1     6   ar
    22     9     8    2
    23     9    10    1
    24     4    28    1
    25     4     5   ar
    26     6     5   ar
    27     6    29    1
    28     5     8    1
    29    31    10    1
    30     8    12    1
    31    10    22    1
    32    10    20    1
    33    22    12    1
    34    52    44    1
    35    12    32    1
    36    12    19    1
    37    40    20    1
    38    51    45    1
    39    20    41    1
    40    20    19    1
    41    44    45   ar
    42    44    43   ar
    43    50    43    1
    44    45    46   ar
    45    19    39    1
    46    19    21    1
    47    43    42   ar
    48    46    53    1
    49    46    47   ar
    50    42    47   ar
    51    42    23    1
    52    47    54    1
    53    23    21    1
    54    23    38    1
    55    21    24    2
    56    21    25    2
    57    48    38    1
    58    38    49    1
