OSSM_091763
     RDKit          3D

 26 27  0  0  0  0  0  0  0  0999 V2000
   -2.0659   -0.2925    1.9150 C   0  0  0  0  0  0  0  0  0  0  0  0
   -2.1790   -1.8014    1.7284 C   0  0  0  0  0  0  0  0  0  0  0  0
   -0.9005   -2.2165    1.0095 C   0  0  0  0  0  0  0  0  0  0  0  0
   -0.0087   -0.9727    1.0714 C   0  0  0  0  0  0  0  0  0  0  0  0
   -0.9736    0.1582    1.0349 N   0  0  0  0  0  0  0  0  0  0  0  0
   -1.4916    0.4466   -0.3080 C   0  0  0  0  0  0  0  0  0  0  0  0
    1.1578   -0.8777    0.1171 C   0  0  0  0  0  0  0  0  0  0  0  0
    1.5490   -1.9181   -0.7205 C   0  0  0  0  0  0  0  0  0  0  0  0
    2.6096   -1.8707   -1.5625 N   0  0  0  0  0  0  0  0  0  0  0  0
    3.3309   -0.7307   -1.5677 C   0  0  0  0  0  0  0  0  0  0  0  0
    3.0457    0.3605   -0.7678 C   0  0  0  0  0  0  0  0  0  0  0  0
    1.9502    0.2791    0.0866 C   0  0  0  0  0  0  0  0  0  0  0  0
   -3.0158    0.2231    1.7345 H   0  0  0  0  0  0  0  0  0  0  0  0
   -1.7867   -0.0745    2.9536 H   0  0  0  0  0  0  0  0  0  0  0  0
   -2.2724   -2.3075    2.6951 H   0  0  0  0  0  0  0  0  0  0  0  0
   -3.0539   -2.0633    1.1233 H   0  0  0  0  0  0  0  0  0  0  0  0
   -1.1448   -2.5011   -0.0210 H   0  0  0  0  0  0  0  0  0  0  0  0
   -0.4316   -3.0824    1.4894 H   0  0  0  0  0  0  0  0  0  0  0  0
    0.4486   -0.9631    2.0734 H   0  0  0  0  0  0  0  0  0  0  0  0
   -1.9705   -0.4144   -0.7863 H   0  0  0  0  0  0  0  0  0  0  0  0
   -0.6999    0.8110   -0.9700 H   0  0  0  0  0  0  0  0  0  0  0  0
   -2.2311    1.2542   -0.2551 H   0  0  0  0  0  0  0  0  0  0  0  0
    1.0167   -2.8641   -0.7494 H   0  0  0  0  0  0  0  0  0  0  0  0
    4.1737   -0.7183   -2.2524 H   0  0  0  0  0  0  0  0  0  0  0  0
    3.6595    1.2529   -0.8058 H   0  0  0  0  0  0  0  0  0  0  0  0
    1.7040    1.1230    0.7285 H   0  0  0  0  0  0  0  0  0  0  0  0
  1  2  1  0
  2  3  1  0
  3  4  1  0
  4  5  1  0
  5  6  1  0
  4  7  1  0
  7  8  2  0
  8  9  1  0
  9 10  2  0
 10 11  1  0
 11 12  2  0
  5  1  1  0
 12  7  1  0
  1 13  1  0
  1 14  1  0
  2 15  1  0
  2 16  1  0
  3 17  1  0
  3 18  1  0
  4 19  1  0
  6 20  1  0
  6 21  1  0
  6 22  1  0
  8 23  1  0
 10 24  1  0
 11 25  1  0
 12 26  1  0
M  END
>  <mol_id>  (1) 
OSSM_091763

>  <drugclip_rank>  (1) 
1

>  <conformer>  (1) 
11

>  <align_rmsd>  (1) 
0.286

$$$$
STL146319
     RDKit          3D

 26 27  0  0  0  0  0  0  0  0999 V2000
   -2.0659   -0.2925    1.9150 C   0  0  0  0  0  0  0  0  0  0  0  0
   -2.1790   -1.8014    1.7284 C   0  0  0  0  0  0  0  0  0  0  0  0
   -0.9005   -2.2165    1.0095 C   0  0  0  0  0  0  0  0  0  0  0  0
   -0.0087   -0.9727    1.0714 C   0  0  0  0  0  0  0  0  0  0  0  0
   -0.9736    0.1582    1.0349 N   0  0  0  0  0  0  0  0  0  0  0  0
   -1.4916    0.4466   -0.3080 C   0  0  0  0  0  0  0  0  0  0  0  0
    1.1578   -0.8777    0.1171 C   0  0  0  0  0  0  0  0  0  0  0  0
    1.5490   -1.9181   -0.7205 C   0  0  0  0  0  0  0  0  0  0  0  0
    2.6096   -1.8707   -1.5625 N   0  0  0  0  0  0  0  0  0  0  0  0
    3.3309   -0.7307   -1.5677 C   0  0  0  0  0  0  0  0  0  0  0  0
    3.0457    0.3605   -0.7678 C   0  0  0  0  0  0  0  0  0  0  0  0
    1.9502    0.2791    0.0866 C   0  0  0  0  0  0  0  0  0  0  0  0
   -3.0158    0.2231    1.7345 H   0  0  0  0  0  0  0  0  0  0  0  0
   -1.7867   -0.0745    2.9536 H   0  0  0  0  0  0  0  0  0  0  0  0
   -2.2724   -2.3075    2.6951 H   0  0  0  0  0  0  0  0  0  0  0  0
   -3.0539   -2.0633    1.1233 H   0  0  0  0  0  0  0  0  0  0  0  0
   -1.1448   -2.5011   -0.0210 H   0  0  0  0  0  0  0  0  0  0  0  0
   -0.4316   -3.0824    1.4894 H   0  0  0  0  0  0  0  0  0  0  0  0
    0.4486   -0.9631    2.0734 H   0  0  0  0  0  0  0  0  0  0  0  0
   -1.9705   -0.4144   -0.7863 H   0  0  0  0  0  0  0  0  0  0  0  0
   -0.6999    0.8110   -0.9700 H   0  0  0  0  0  0  0  0  0  0  0  0
   -2.2311    1.2542   -0.2551 H   0  0  0  0  0  0  0  0  0  0  0  0
    1.0167   -2.8641   -0.7494 H   0  0  0  0  0  0  0  0  0  0  0  0
    4.1737   -0.7183   -2.2524 H   0  0  0  0  0  0  0  0  0  0  0  0
    3.6595    1.2529   -0.8058 H   0  0  0  0  0  0  0  0  0  0  0  0
    1.7040    1.1230    0.7285 H   0  0  0  0  0  0  0  0  0  0  0  0
  1  2  1  0
  2  3  1  0
  3  4  1  0
  4  5  1  0
  5  6  1  0
  4  7  1  0
  7  8  2  0
  8  9  1  0
  9 10  2  0
 10 11  1  0
 11 12  2  0
  5  1  1  0
 12  7  1  0
  1 13  1  0
  1 14  1  0
  2 15  1  0
  2 16  1  0
  3 17  1  0
  3 18  1  0
  4 19  1  0
  6 20  1  0
  6 21  1  0
  6 22  1  0
  8 23  1  0
 10 24  1  0
 11 25  1  0
 12 26  1  0
M  END
>  <mol_id>  (2) 
STL146319

>  <drugclip_rank>  (2) 
2

>  <conformer>  (2) 
11

>  <align_rmsd>  (2) 
0.286

$$$$
Z3379559298
     RDKit          3D

 28 28  0  0  0  0  0  0  0  0999 V2000
    0.7620   -0.6362    0.0908 Cl  0  0  0  0  0  0  0  0  0  0  0  0
   -0.4892    1.3345    1.5848 C   0  0  0  0  0  0  0  0  0  0  0  0
   -0.9330    0.1033    0.9844 N   0  0  0  0  0  0  0  0  0  0  0  0
   -1.9936   -0.5133    1.8114 C   0  0  0  0  0  0  0  0  0  0  0  0
   -2.2428   -1.7573    0.9893 C   0  0  0  0  0  0  0  0  0  0  0  0
   -0.8811   -2.1251    0.4448 C   0  0  0  0  0  0  0  0  0  0  0  0
    0.0008   -0.9604    0.9327 C   0  0  0  0  0  0  0  0  0  0  0  0
    1.1858   -0.8087    0.1107 C   0  0  0  0  0  0  0  0  0  0  0  0
    2.0287    0.2701    0.0556 C   0  0  0  0  0  0  0  0  0  0  0  0
    3.1362    0.2950   -0.7812 C   0  0  0  0  0  0  0  0  0  0  0  0
    3.4284   -0.7920   -1.6022 C   0  0  0  0  0  0  0  0  0  0  0  0
    2.5998   -1.8313   -1.5363 N   0  0  0  0  0  0  0  0  0  0  0  0
    1.5240   -1.8787   -0.7362 C   0  0  0  0  0  0  0  0  0  0  0  0
   -0.3927   -0.5509    0.8230 H   0  0  0  0  0  0  0  0  0  0  0  0
   -0.3000    2.0740    0.8038 H   0  0  0  0  0  0  0  0  0  0  0  0
    0.2462    1.2405    2.3820 H   0  0  0  0  0  0  0  0  0  0  0  0
   -1.4192    1.7322    2.1091 H   0  0  0  0  0  0  0  0  0  0  0  0
   -2.8694    0.1430    1.8840 H   0  0  0  0  0  0  0  0  0  0  0  0
   -1.5358   -0.7873    2.7830 H   0  0  0  0  0  0  0  0  0  0  0  0
   -2.9650   -1.4606    0.2021 H   0  0  0  0  0  0  0  0  0  0  0  0
   -2.7119   -2.5703    1.5750 H   0  0  0  0  0  0  0  0  0  0  0  0
   -0.9783   -2.0868   -0.6626 H   0  0  0  0  0  0  0  0  0  0  0  0
   -0.5409   -3.0858    0.8447 H   0  0  0  0  0  0  0  0  0  0  0  0
    0.3194   -1.3031    1.9602 H   0  0  0  0  0  0  0  0  0  0  0  0
    1.8528    1.1145    0.6591 H   0  0  0  0  0  0  0  0  0  0  0  0
    3.7714    1.1732   -0.7871 H   0  0  0  0  0  0  0  0  0  0  0  0
    4.2954   -0.7603   -2.2507 H   0  0  0  0  0  0  0  0  0  0  0  0
    0.9311   -2.7809   -0.7750 H   0  0  0  0  0  0  0  0  0  0  0  0
  2  3  1  0
  3  4  1  0
  4  5  1  0
  5  6  1  0
  6  7  1  0
  7  8  1  0
  8  9  2  0
  9 10  1  0
 10 11  2  0
 11 12  1  0
 12 13  2  0
  7  3  1  0
 13  8  1  0
  1 14  1  0
  2 15  1  0
  2 16  1  0
  2 17  1  0
  4 18  1  0
  4 19  1  0
  5 20  1  0
  5 21  1  0
  6 22  1  0
  6 23  1  0
  7 24  1  0
  9 25  1  0
 10 26  1  0
 11 27  1  0
 13 28  1  0
M  END
>  <mol_id>  (3) 
Z3379559298

>  <drugclip_rank>  (3) 
3

>  <conformer>  (3) 
8

>  <align_rmsd>  (3) 
0.291

$$$$
Z1198150037
     RDKit          3D

 26 27  0  0  0  0  0  0  0  0999 V2000
   -1.4916    0.4467   -0.3080 C   0  0  0  0  0  0  0  0  0  0  0  0
   -0.9736    0.1583    1.0349 N   0  0  0  0  0  0  0  0  0  0  0  0
   -2.0659   -0.2925    1.9150 C   0  0  0  0  0  0  0  0  0  0  0  0
   -2.1790   -1.8014    1.7284 C   0  0  0  0  0  0  0  0  0  0  0  0
   -0.9005   -2.2165    1.0095 C   0  0  0  0  0  0  0  0  0  0  0  0
   -0.0087   -0.9727    1.0714 C   0  0  1  0  0  0  0  0  0  0  0  0
    1.1578   -0.8777    0.1171 C   0  0  0  0  0  0  0  0  0  0  0  0
    1.9502    0.2791    0.0866 C   0  0  0  0  0  0  0  0  0  0  0  0
    3.0457    0.3605   -0.7678 C   0  0  0  0  0  0  0  0  0  0  0  0
    3.3309   -0.7307   -1.5677 C   0  0  0  0  0  0  0  0  0  0  0  0
    2.6096   -1.8707   -1.5625 N   0  0  0  0  0  0  0  0  0  0  0  0
    1.5490   -1.9181   -0.7205 C   0  0  0  0  0  0  0  0  0  0  0  0
   -2.2311    1.2543   -0.2550 H   0  0  0  0  0  0  0  0  0  0  0  0
   -1.9705   -0.4143   -0.7863 H   0  0  0  0  0  0  0  0  0  0  0  0
   -0.6999    0.8111   -0.9700 H   0  0  0  0  0  0  0  0  0  0  0  0
   -1.7867   -0.0745    2.9536 H   0  0  0  0  0  0  0  0  0  0  0  0
   -3.0159    0.2231    1.7345 H   0  0  0  0  0  0  0  0  0  0  0  0
   -3.0539   -2.0632    1.1233 H   0  0  0  0  0  0  0  0  0  0  0  0
   -2.2724   -2.3075    2.6951 H   0  0  0  0  0  0  0  0  0  0  0  0
   -0.4317   -3.0824    1.4893 H   0  0  0  0  0  0  0  0  0  0  0  0
   -1.1448   -2.5011   -0.0210 H   0  0  0  0  0  0  0  0  0  0  0  0
    0.4486   -0.9632    2.0734 H   0  0  0  0  0  0  0  0  0  0  0  0
    1.7040    1.1230    0.7285 H   0  0  0  0  0  0  0  0  0  0  0  0
    3.6595    1.2529   -0.8058 H   0  0  0  0  0  0  0  0  0  0  0  0
    4.1738   -0.7184   -2.2523 H   0  0  0  0  0  0  0  0  0  0  0  0
    1.0167   -2.8641   -0.7495 H   0  0  0  0  0  0  0  0  0  0  0  0
  1  2  1  0
  2  3  1  0
  3  4  1  0
  4  5  1  0
  5  6  1  0
  6  7  1  0
  7  8  2  0
  8  9  1  0
  9 10  2  0
 10 11  1  0
 11 12  2  0
  6  2  1  0
 12  7  1  0
  1 13  1  0
  1 14  1  0
  1 15  1  0
  3 16  1  0
  3 17  1  0
  4 18  1  0
  4 19  1  0
  5 20  1  0
  5 21  1  0
  6 22  1  1
  8 23  1  0
  9 24  1  0
 10 25  1  0
 12 26  1  0
M  END
>  <mol_id>  (4) 
Z1198150037

>  <drugclip_rank>  (4) 
4

>  <conformer>  (4) 
6

>  <align_rmsd>  (4) 
0.286

$$$$
3690-1011
     RDKit          3D

 29 31  0  0  0  0  0  0  0  0999 V2000
   -0.6318    1.4814    1.3090 C   0  0  0  0  0  0  0  0  0  0  0  0
    0.0094    1.6665    2.6881 C   0  0  0  0  0  0  0  0  0  0  0  0
    0.9057    0.4873    3.0798 C   0  0  0  0  0  0  0  0  0  0  0  0
    0.4151   -0.8215    2.6152 N   0  0  0  0  0  0  0  0  0  0  0  0
   -0.9664   -1.0378    3.1254 C   0  0  0  0  0  0  0  0  0  0  0  0
   -1.8965   -0.4365    2.0542 C   0  0  0  0  0  0  0  0  0  0  0  0
    0.1674   -0.8117    1.1597 C   0  0  0  0  0  0  0  0  0  0  0  0
   -0.9916    0.0879    0.9950 N   0  0  0  0  0  0  0  0  0  0  0  0
    1.3430   -0.6999    0.2018 C   0  0  0  0  0  0  0  0  0  0  0  0
    1.6145   -1.7838   -0.6425 C   0  0  0  0  0  0  0  0  0  0  0  0
    2.6205   -1.8461   -1.5509 N   0  0  0  0  0  0  0  0  0  0  0  0
    3.4185   -0.7669   -1.6380 C   0  0  0  0  0  0  0  0  0  0  0  0
    3.2542    0.3633   -0.8609 C   0  0  0  0  0  0  0  0  0  0  0  0
    2.2079    0.3914    0.0634 C   0  0  0  0  0  0  0  0  0  0  0  0
   -1.5325    2.1068    1.2506 H   0  0  0  0  0  0  0  0  0  0  0  0
    0.0162    1.8837    0.5249 H   0  0  0  0  0  0  0  0  0  0  0  0
   -0.7844    1.7754    3.4384 H   0  0  0  0  0  0  0  0  0  0  0  0
    0.5841    2.5993    2.7127 H   0  0  0  0  0  0  0  0  0  0  0  0
    1.0051    0.4662    4.1732 H   0  0  0  0  0  0  0  0  0  0  0  0
    1.9291    0.6469    2.7280 H   0  0  0  0  0  0  0  0  0  0  0  0
   -1.1466   -2.1165    3.2099 H   0  0  0  0  0  0  0  0  0  0  0  0
   -1.1292   -0.6029    4.1180 H   0  0  0  0  0  0  0  0  0  0  0  0
   -2.5688    0.3279    2.4600 H   0  0  0  0  0  0  0  0  0  0  0  0
   -2.5245   -1.2256    1.6230 H   0  0  0  0  0  0  0  0  0  0  0  0
   -0.2234   -1.8182    0.9340 H   0  0  0  0  0  0  0  0  0  0  0  0
    1.0034   -2.6838   -0.6171 H   0  0  0  0  0  0  0  0  0  0  0  0
    4.2173   -0.8354   -2.3700 H   0  0  0  0  0  0  0  0  0  0  0  0
    3.9248    1.2084   -0.9687 H   0  0  0  0  0  0  0  0  0  0  0  0
    2.0968    1.2867    0.6624 H   0  0  0  0  0  0  0  0  0  0  0  0
  1  2  1  0
  2  3  1  0
  3  4  1  0
  4  5  1  0
  5  6  1  0
  4  7  1  0
  7  8  1  0
  7  9  1  0
  9 10  2  0
 10 11  1  0
 11 12  2  0
 12 13  1  0
 13 14  2  0
  8  1  1  0
  8  6  1  0
 14  9  1  0
  1 15  1  0
  1 16  1  0
  2 17  1  0
  2 18  1  0
  3 19  1  0
  3 20  1  0
  5 21  1  0
  5 22  1  0
  6 23  1  0
  6 24  1  0
  7 25  1  0
 10 26  1  0
 12 27  1  0
 13 28  1  0
 14 29  1  0
M  END
>  <mol_id>  (5) 
3690-1011

>  <drugclip_rank>  (5) 
5

>  <conformer>  (5) 
6

>  <align_rmsd>  (5) 
0.237

$$$$
OSSK_435001
     RDKit          3D

 29 31  0  0  0  0  0  0  0  0999 V2000
   -0.6318    1.4814    1.3090 C   0  0  0  0  0  0  0  0  0  0  0  0
    0.0094    1.6665    2.6881 C   0  0  0  0  0  0  0  0  0  0  0  0
    0.9057    0.4873    3.0798 C   0  0  0  0  0  0  0  0  0  0  0  0
    0.4151   -0.8215    2.6152 N   0  0  0  0  0  0  0  0  0  0  0  0
   -0.9664   -1.0378    3.1254 C   0  0  0  0  0  0  0  0  0  0  0  0
   -1.8965   -0.4365    2.0542 C   0  0  0  0  0  0  0  0  0  0  0  0
    0.1674   -0.8117    1.1597 C   0  0  0  0  0  0  0  0  0  0  0  0
   -0.9916    0.0879    0.9950 N   0  0  0  0  0  0  0  0  0  0  0  0
    1.3430   -0.6999    0.2018 C   0  0  0  0  0  0  0  0  0  0  0  0
    1.6145   -1.7838   -0.6425 C   0  0  0  0  0  0  0  0  0  0  0  0
    2.6205   -1.8461   -1.5509 N   0  0  0  0  0  0  0  0  0  0  0  0
    3.4185   -0.7669   -1.6380 C   0  0  0  0  0  0  0  0  0  0  0  0
    3.2542    0.3633   -0.8609 C   0  0  0  0  0  0  0  0  0  0  0  0
    2.2079    0.3914    0.0634 C   0  0  0  0  0  0  0  0  0  0  0  0
   -1.5325    2.1068    1.2506 H   0  0  0  0  0  0  0  0  0  0  0  0
    0.0162    1.8837    0.5249 H   0  0  0  0  0  0  0  0  0  0  0  0
   -0.7844    1.7754    3.4384 H   0  0  0  0  0  0  0  0  0  0  0  0
    0.5841    2.5993    2.7127 H   0  0  0  0  0  0  0  0  0  0  0  0
    1.0051    0.4662    4.1732 H   0  0  0  0  0  0  0  0  0  0  0  0
    1.9291    0.6469    2.7280 H   0  0  0  0  0  0  0  0  0  0  0  0
   -1.1466   -2.1165    3.2099 H   0  0  0  0  0  0  0  0  0  0  0  0
   -1.1292   -0.6029    4.1180 H   0  0  0  0  0  0  0  0  0  0  0  0
   -2.5688    0.3279    2.4600 H   0  0  0  0  0  0  0  0  0  0  0  0
   -2.5245   -1.2256    1.6230 H   0  0  0  0  0  0  0  0  0  0  0  0
   -0.2234   -1.8182    0.9340 H   0  0  0  0  0  0  0  0  0  0  0  0
    1.0034   -2.6838   -0.6171 H   0  0  0  0  0  0  0  0  0  0  0  0
    4.2173   -0.8354   -2.3700 H   0  0  0  0  0  0  0  0  0  0  0  0
    3.9248    1.2084   -0.9687 H   0  0  0  0  0  0  0  0  0  0  0  0
    2.0968    1.2867    0.6624 H   0  0  0  0  0  0  0  0  0  0  0  0
  1  2  1  0
  2  3  1  0
  3  4  1  0
  4  5  1  0
  5  6  1  0
  4  7  1  0
  7  8  1  0
  7  9  1  0
  9 10  2  0
 10 11  1  0
 11 12  2  0
 12 13  1  0
 13 14  2  0
  8  1  1  0
  8  6  1  0
 14  9  1  0
  1 15  1  0
  1 16  1  0
  2 17  1  0
  2 18  1  0
  3 19  1  0
  3 20  1  0
  5 21  1  0
  5 22  1  0
  6 23  1  0
  6 24  1  0
  7 25  1  0
 10 26  1  0
 12 27  1  0
 13 28  1  0
 14 29  1  0
M  END
>  <mol_id>  (6) 
OSSK_435001

>  <drugclip_rank>  (6) 
6

>  <conformer>  (6) 
6

>  <align_rmsd>  (6) 
0.237

$$$$
STK051267
     RDKit          3D

 29 31  0  0  0  0  0  0  0  0999 V2000
   -0.6318    1.4814    1.3090 C   0  0  0  0  0  0  0  0  0  0  0  0
    0.0094    1.6665    2.6881 C   0  0  0  0  0  0  0  0  0  0  0  0
    0.9057    0.4873    3.0798 C   0  0  0  0  0  0  0  0  0  0  0  0
    0.4151   -0.8215    2.6152 N   0  0  0  0  0  0  0  0  0  0  0  0
   -0.9664   -1.0378    3.1254 C   0  0  0  0  0  0  0  0  0  0  0  0
   -1.8965   -0.4365    2.0542 C   0  0  0  0  0  0  0  0  0  0  0  0
    0.1674   -0.8117    1.1597 C   0  0  0  0  0  0  0  0  0  0  0  0
   -0.9916    0.0879    0.9950 N   0  0  0  0  0  0  0  0  0  0  0  0
    1.3430   -0.6999    0.2018 C   0  0  0  0  0  0  0  0  0  0  0  0
    1.6145   -1.7838   -0.6425 C   0  0  0  0  0  0  0  0  0  0  0  0
    2.6205   -1.8461   -1.5509 N   0  0  0  0  0  0  0  0  0  0  0  0
    3.4185   -0.7669   -1.6380 C   0  0  0  0  0  0  0  0  0  0  0  0
    3.2542    0.3633   -0.8609 C   0  0  0  0  0  0  0  0  0  0  0  0
    2.2079    0.3914    0.0634 C   0  0  0  0  0  0  0  0  0  0  0  0
   -1.5325    2.1068    1.2506 H   0  0  0  0  0  0  0  0  0  0  0  0
    0.0162    1.8837    0.5249 H   0  0  0  0  0  0  0  0  0  0  0  0
   -0.7844    1.7754    3.4384 H   0  0  0  0  0  0  0  0  0  0  0  0
    0.5841    2.5993    2.7127 H   0  0  0  0  0  0  0  0  0  0  0  0
    1.0051    0.4662    4.1732 H   0  0  0  0  0  0  0  0  0  0  0  0
    1.9291    0.6469    2.7280 H   0  0  0  0  0  0  0  0  0  0  0  0
   -1.1466   -2.1165    3.2099 H   0  0  0  0  0  0  0  0  0  0  0  0
   -1.1292   -0.6029    4.1180 H   0  0  0  0  0  0  0  0  0  0  0  0
   -2.5688    0.3279    2.4600 H   0  0  0  0  0  0  0  0  0  0  0  0
   -2.5245   -1.2256    1.6230 H   0  0  0  0  0  0  0  0  0  0  0  0
   -0.2234   -1.8182    0.9340 H   0  0  0  0  0  0  0  0  0  0  0  0
    1.0034   -2.6838   -0.6171 H   0  0  0  0  0  0  0  0  0  0  0  0
    4.2173   -0.8354   -2.3700 H   0  0  0  0  0  0  0  0  0  0  0  0
    3.9248    1.2084   -0.9687 H   0  0  0  0  0  0  0  0  0  0  0  0
    2.0968    1.2867    0.6624 H   0  0  0  0  0  0  0  0  0  0  0  0
  1  2  1  0
  2  3  1  0
  3  4  1  0
  4  5  1  0
  5  6  1  0
  4  7  1  0
  7  8  1  0
  7  9  1  0
  9 10  2  0
 10 11  1  0
 11 12  2  0
 12 13  1  0
 13 14  2  0
  8  1  1  0
  8  6  1  0
 14  9  1  0
  1 15  1  0
  1 16  1  0
  2 17  1  0
  2 18  1  0
  3 19  1  0
  3 20  1  0
  5 21  1  0
  5 22  1  0
  6 23  1  0
  6 24  1  0
  7 25  1  0
 10 26  1  0
 12 27  1  0
 13 28  1  0
 14 29  1  0
M  END
>  <mol_id>  (7) 
STK051267

>  <drugclip_rank>  (7) 
7

>  <conformer>  (7) 
6

>  <align_rmsd>  (7) 
0.237

$$$$
STL553215
     RDKit          3D

 30 31  0  0  0  0  0  0  0  0999 V2000
   -0.9678    1.3723    1.6926 C   0  0  0  0  0  0  0  0  0  0  0  0
   -1.0625    1.1143    3.1933 C   0  0  0  0  0  0  0  0  0  0  0  0
   -0.3565   -0.1640    3.6445 C   0  0  0  0  0  0  0  0  0  0  0  0
    0.7838   -0.5266    2.7032 C   0  0  0  0  0  0  0  0  0  0  0  0
    0.2881   -0.7992    1.2660 C   0  0  0  0  0  0  0  0  0  0  0  0
   -0.9495    0.0593    0.9614 N   0  0  2  0  0  0  0  0  0  0  0  0
   -1.2632    0.2109   -0.5038 C   0  0  0  0  0  0  0  0  0  0  0  0
    1.4026   -0.7229    0.2495 C   0  0  0  0  0  0  0  0  0  0  0  0
    1.6638   -1.8176   -0.5738 C   0  0  0  0  0  0  0  0  0  0  0  0
    2.6086   -1.8362   -1.5353 N   0  0  0  0  0  0  0  0  0  0  0  0
    3.3624   -0.7280   -1.6843 C   0  0  0  0  0  0  0  0  0  0  0  0
    3.1982    0.4092   -0.9153 C   0  0  0  0  0  0  0  0  0  0  0  0
    2.2033    0.4115    0.0609 C   0  0  0  0  0  0  0  0  0  0  0  0
   -0.0588    1.9191    1.4250 H   0  0  0  0  0  0  0  0  0  0  0  0
   -1.8368    1.9446    1.3503 H   0  0  0  0  0  0  0  0  0  0  0  0
   -2.1154    1.0592    3.4963 H   0  0  0  0  0  0  0  0  0  0  0  0
   -0.6417    1.9783    3.7217 H   0  0  0  0  0  0  0  0  0  0  0  0
    0.0167   -0.0390    4.6672 H   0  0  0  0  0  0  0  0  0  0  0  0
   -1.0777   -0.9904    3.6746 H   0  0  0  0  0  0  0  0  0  0  0  0
    1.5217    0.2847    2.7278 H   0  0  0  0  0  0  0  0  0  0  0  0
    1.3059   -1.4161    3.0779 H   0  0  0  0  0  0  0  0  0  0  0  0
   -0.1159   -1.8209    1.2574 H   0  0  0  0  0  0  0  0  0  0  0  0
   -1.7440   -0.4750    1.3366 H   0  0  0  0  0  0  0  0  0  0  0  0
   -2.2645    0.6432   -0.5857 H   0  0  0  0  0  0  0  0  0  0  0  0
   -0.5266    0.8743   -0.9627 H   0  0  0  0  0  0  0  0  0  0  0  0
   -1.2575   -0.7821   -0.9604 H   0  0  0  0  0  0  0  0  0  0  0  0
    1.1038   -2.7474   -0.4960 H   0  0  0  0  0  0  0  0  0  0  0  0
    4.1244   -0.7818   -2.4579 H   0  0  0  0  0  0  0  0  0  0  0  0
    3.8366    1.2732   -1.0725 H   0  0  0  0  0  0  0  0  0  0  0  0
    2.0803    1.3060    0.6652 H   0  0  0  0  0  0  0  0  0  0  0  0
  1  2  1  0
  2  3  1  0
  3  4  1  0
  4  5  1  0
  5  6  1  0
  6  7  1  0
  5  8  1  0
  8  9  2  0
  9 10  1  0
 10 11  2  0
 11 12  1  0
 12 13  2  0
  6  1  1  0
 13  8  1  0
  1 14  1  0
  1 15  1  0
  2 16  1  0
  2 17  1  0
  3 18  1  0
  3 19  1  0
  4 20  1  0
  4 21  1  0
  5 22  1  0
  6 23  1  1
  7 24  1  0
  7 25  1  0
  7 26  1  0
  9 27  1  0
 11 28  1  0
 12 29  1  0
 13 30  1  0
M  CHG  1   6   1
M  END
>  <mol_id>  (8) 
STL553215

>  <drugclip_rank>  (8) 
8

>  <conformer>  (8) 
13

>  <align_rmsd>  (8) 
0.266

$$$$
OSSL_789714
     RDKit          3D

 28 28  0  0  0  0  0  0  0  0999 V2000
    2.0559   -1.9442   -0.4214 C   0  0  0  0  0  0  0  0  0  0  0  0
    2.7101   -1.8874   -1.6010 N   0  0  0  0  0  0  0  0  0  0  0  0
    3.1907   -0.6734   -1.9491 C   0  0  0  0  0  0  0  0  0  0  0  0
    2.9906    0.4463   -1.1637 C   0  0  0  0  0  0  0  0  0  0  0  0
    2.2932    0.4013   -0.0011 N   0  0  0  0  0  0  0  0  0  0  0  0
    1.8406   -0.8216    0.3719 C   0  0  0  0  0  0  0  0  0  0  0  0
    1.0931   -0.9081    1.6687 C   0  0  0  0  0  0  0  0  0  0  0  0
   -0.4267   -1.0652    1.5300 C   0  0  0  0  0  0  0  0  0  0  0  0
   -1.2364    0.1979    1.1538 N   0  0  0  0  0  0  0  0  0  0  0  0
   -1.0103    0.6153   -0.2980 C   0  0  0  0  0  0  0  0  0  0  0  0
   -0.9128    1.3760    2.0660 C   0  0  0  0  0  0  0  0  0  0  0  0
   -2.7237   -0.1408    1.3146 C   0  0  0  0  0  0  0  0  0  0  0  0
    1.7135   -2.9333   -0.1349 H   0  0  0  0  0  0  0  0  0  0  0  0
    3.7461   -0.6271   -2.8797 H   0  0  0  0  0  0  0  0  0  0  0  0
    3.3865    1.4151   -1.4495 H   0  0  0  0  0  0  0  0  0  0  0  0
    1.3492   -0.0548    2.3052 H   0  0  0  0  0  0  0  0  0  0  0  0
    1.4763   -1.7858    2.2066 H   0  0  0  0  0  0  0  0  0  0  0  0
   -0.8195   -1.3826    2.5042 H   0  0  0  0  0  0  0  0  0  0  0  0
   -0.6878   -1.8389    0.7978 H   0  0  0  0  0  0  0  0  0  0  0  0
   -1.0823   -0.2726   -0.9319 H   0  0  0  0  0  0  0  0  0  0  0  0
   -1.7838    1.3398   -0.5722 H   0  0  0  0  0  0  0  0  0  0  0  0
   -0.0373    1.0941   -0.3882 H   0  0  0  0  0  0  0  0  0  0  0  0
   -1.6138    2.1867    1.8446 H   0  0  0  0  0  0  0  0  0  0  0  0
    0.1083    1.7113    1.8684 H   0  0  0  0  0  0  0  0  0  0  0  0
   -1.0226    1.0482    3.1036 H   0  0  0  0  0  0  0  0  0  0  0  0
   -2.9591   -0.9763    0.6486 H   0  0  0  0  0  0  0  0  0  0  0  0
   -2.9052   -0.4151    2.3580 H   0  0  0  0  0  0  0  0  0  0  0  0
   -3.3150    0.7403    1.0475 H   0  0  0  0  0  0  0  0  0  0  0  0
  1  2  2  0
  2  3  1  0
  3  4  2  0
  4  5  1  0
  5  6  2  0
  6  7  1  0
  7  8  1  0
  8  9  1  0
  9 10  1  0
  9 11  1  0
  9 12  1  0
  6  1  1  0
  1 13  1  0
  3 14  1  0
  4 15  1  0
  7 16  1  0
  7 17  1  0
  8 18  1  0
  8 19  1  0
 10 20  1  0
 10 21  1  0
 10 22  1  0
 11 23  1  0
 11 24  1  0
 11 25  1  0
 12 26  1  0
 12 27  1  0
 12 28  1  0
M  CHG  1   9   1
M  END
>  <mol_id>  (9) 
OSSL_789714

>  <drugclip_rank>  (9) 
9

>  <conformer>  (9) 
8

>  <align_rmsd>  (9) 
0.089

$$$$
Z2517097759
     RDKit          3D

 28 27  0  0  0  0  0  0  0  0999 V2000
    1.6062   -0.1244    0.3868 Cl  0  0  0  0  0  0  0  0  0  0  0  0
    1.6062   -0.1244    0.3868 Cl  0  0  0  0  0  0  0  0  0  0  0  0
    1.8548   -1.5002   -0.6752 C   0  0  0  0  0  0  0  0  0  0  0  0
    2.7751   -1.8304   -1.5981 N   0  0  0  0  0  0  0  0  0  0  0  0
    3.8356   -1.0443   -1.8429 C   0  0  0  0  0  0  0  0  0  0  0  0
    3.9529    0.1201   -1.1139 C   0  0  0  0  0  0  0  0  0  0  0  0
    3.0006    0.4771   -0.1481 C   0  0  0  0  0  0  0  0  0  0  0  0
    1.9191   -0.3469    0.0859 C   0  0  0  0  0  0  0  0  0  0  0  0
    0.9200    0.0031    1.0806 C   0  0  0  0  0  0  0  0  0  0  0  0
    1.0037    1.1306    1.8146 C   0  0  0  0  0  0  0  0  0  0  0  0
   -0.0972    1.3388    2.7862 C   0  0  0  0  0  0  0  0  0  0  0  0
   -1.4631    1.0021    2.2568 C   0  0  0  0  0  0  0  0  0  0  0  0
   -1.4015    0.0904    1.1414 N   0  0  0  0  0  0  0  0  0  0  0  0
   -0.2769   -0.8321    1.3787 C   0  0  0  0  0  0  0  0  0  0  0  0
    0.5113    0.3223    1.1002 H   0  0  0  0  0  0  0  0  0  0  0  0
    0.5113    0.3223    1.1002 H   0  0  0  0  0  0  0  0  0  0  0  0
    1.0387   -2.1918   -0.5467 H   0  0  0  0  0  0  0  0  0  0  0  0
    4.5369   -1.3531   -2.5865 H   0  0  0  0  0  0  0  0  0  0  0  0
    4.8087    0.7514   -1.3136 H   0  0  0  0  0  0  0  0  0  0  0  0
    3.1847    1.3948    0.3576 H   0  0  0  0  0  0  0  0  0  0  0  0
    1.8023    1.8226    1.7056 H   0  0  0  0  0  0  0  0  0  0  0  0
    0.1135    0.7053    3.6778 H   0  0  0  0  0  0  0  0  0  0  0  0
   -0.0974    2.4292    3.0685 H   0  0  0  0  0  0  0  0  0  0  0  0
   -2.0977    0.5128    3.0294 H   0  0  0  0  0  0  0  0  0  0  0  0
   -1.9631    1.9262    1.8796 H   0  0  0  0  0  0  0  0  0  0  0  0
   -1.2293    0.6185    0.2561 H   0  0  0  0  0  0  0  0  0  0  0  0
   -0.4155   -1.6777    0.7196 H   0  0  0  0  0  0  0  0  0  0  0  0
   -0.2947   -1.1714    2.4299 H   0  0  0  0  0  0  0  0  0  0  0  0
  3  4  2  0
  4  5  1  0
  5  6  2  0
  6  7  1  0
  7  8  2  0
  8  9  1  0
  9 10  2  0
 10 11  1  0
 11 12  1  0
 12 13  1  0
 13 14  1  0
  8  3  1  0
 14  9  1  0
  1 15  1  0
  2 16  1  0
  3 17  1  0
  5 18  1  0
  6 19  1  0
  7 20  1  0
 10 21  1  0
 11 22  1  0
 11 23  1  0
 12 24  1  0
 12 25  1  0
 13 26  1  0
 14 27  1  0
 14 28  1  0
M  END
>  <mol_id>  (10) 
Z2517097759

>  <drugclip_rank>  (10) 
10

>  <conformer>  (10) 
4

>  <align_rmsd>  (10) 
0.182

$$$$
Z5872843793
     RDKit          3D

 29 30  0  0  0  0  0  0  0  0999 V2000
    4.9563   -1.5456   -2.7192 C   0  0  0  0  0  0  0  0  0  0  0  0
    3.9008   -1.0841   -1.7602 C   0  0  0  0  0  0  0  0  0  0  0  0
    4.0696    0.1005   -1.0520 C   0  0  0  0  0  0  0  0  0  0  0  0
    3.0717    0.5044   -0.1674 C   0  0  0  0  0  0  0  0  0  0  0  0
    1.9270   -0.2782   -0.0020 C   0  0  0  0  0  0  0  0  0  0  0  0
    1.8507   -1.4452   -0.7575 C   0  0  0  0  0  0  0  0  0  0  0  0
    2.8023   -1.8609   -1.6241 N   0  0  0  0  0  0  0  0  0  0  0  0
    0.8311    0.1470    0.9422 C   0  0  0  0  0  0  0  0  0  0  0  0
    0.4316   -0.9163    1.9797 C   0  0  0  0  0  0  0  0  0  0  0  0
   -1.0595   -1.1397    1.7632 C   0  0  0  0  0  0  0  0  0  0  0  0
   -1.5063    0.1386    1.2100 N   0  0  0  0  0  0  0  0  0  0  0  0
   -2.8355    0.0549    0.6218 C   0  0  0  0  0  0  0  0  0  0  0  0
   -0.4815    0.5007    0.2258 C   0  0  0  0  0  0  0  0  0  0  0  0
    5.1009   -0.8019   -3.5090 H   0  0  0  0  0  0  0  0  0  0  0  0
    5.9033   -1.7011   -2.1932 H   0  0  0  0  0  0  0  0  0  0  0  0
    4.6688   -2.4913   -3.1900 H   0  0  0  0  0  0  0  0  0  0  0  0
    4.9620    0.7038   -1.1830 H   0  0  0  0  0  0  0  0  0  0  0  0
    3.1968    1.4305    0.3883 H   0  0  0  0  0  0  0  0  0  0  0  0
    0.9912   -2.1072   -0.6910 H   0  0  0  0  0  0  0  0  0  0  0  0
    1.1688    1.0312    1.5018 H   0  0  0  0  0  0  0  0  0  0  0  0
    0.9929   -1.8532    1.9050 H   0  0  0  0  0  0  0  0  0  0  0  0
    0.6028   -0.5161    2.9875 H   0  0  0  0  0  0  0  0  0  0  0  0
   -1.5692   -1.3843    2.7005 H   0  0  0  0  0  0  0  0  0  0  0  0
   -1.2124   -1.9644    1.0553 H   0  0  0  0  0  0  0  0  0  0  0  0
   -2.8917   -0.6850   -0.1848 H   0  0  0  0  0  0  0  0  0  0  0  0
   -3.1346    1.0277    0.2165 H   0  0  0  0  0  0  0  0  0  0  0  0
   -3.5735   -0.2138    1.3854 H   0  0  0  0  0  0  0  0  0  0  0  0
   -0.6048   -0.0684   -0.7046 H   0  0  0  0  0  0  0  0  0  0  0  0
   -0.5214    1.5669   -0.0230 H   0  0  0  0  0  0  0  0  0  0  0  0
  1  2  1  0
  2  3  2  0
  3  4  1  0
  4  5  2  0
  5  6  1  0
  6  7  2  0
  5  8  1  0
  8  9  1  0
  9 10  1  0
 10 11  1  0
 11 12  1  0
 11 13  1  0
  7  2  1  0
 13  8  1  0
  1 14  1  0
  1 15  1  0
  1 16  1  0
  3 17  1  0
  4 18  1  0
  6 19  1  0
  8 20  1  0
  9 21  1  0
  9 22  1  0
 10 23  1  0
 10 24  1  0
 12 25  1  0
 12 26  1  0
 12 27  1  0
 13 28  1  0
 13 29  1  0
M  END
>  <mol_id>  (11) 
Z5872843793

>  <drugclip_rank>  (11) 
13

>  <conformer>  (11) 
1

>  <align_rmsd>  (11) 
0.208

$$$$
STL562305
     RDKit          3D

 29 30  0  0  0  0  0  0  0  0999 V2000
   -2.0486   -0.0151    1.9855 C   0  0  0  0  0  0  0  0  0  0  0  0
   -1.5372   -0.1729    3.4150 C   0  0  0  0  0  0  0  0  0  0  0  0
   -0.5894   -1.3568    3.5227 C   0  0  0  0  0  0  0  0  0  0  0  0
    0.5315   -1.2199    2.5012 C   0  0  0  0  0  0  0  0  0  0  0  0
   -0.0131   -1.0111    1.0700 C   0  0  0  0  0  0  0  0  0  0  0  0
   -0.9505    0.1403    1.0149 N   0  0  0  0  0  0  0  0  0  0  0  0
   -1.5281    0.3047   -0.3267 C   0  0  0  0  0  0  0  0  0  0  0  0
    1.1759   -0.8626    0.1350 C   0  0  0  0  0  0  0  0  0  0  0  0
    1.5495   -1.9071   -0.7072 C   0  0  0  0  0  0  0  0  0  0  0  0
    2.6022   -1.8654   -1.5564 N   0  0  0  0  0  0  0  0  0  0  0  0
    3.3247   -0.7250   -1.5679 C   0  0  0  0  0  0  0  0  0  0  0  0
    3.0459    0.3722   -0.7709 C   0  0  0  0  0  0  0  0  0  0  0  0
    1.9576    0.2984    0.0928 C   0  0  0  0  0  0  0  0  0  0  0  0
   -2.6934    0.8719    1.9552 H   0  0  0  0  0  0  0  0  0  0  0  0
   -2.6748   -0.8795    1.7266 H   0  0  0  0  0  0  0  0  0  0  0  0
   -1.0222    0.7441    3.7279 H   0  0  0  0  0  0  0  0  0  0  0  0
   -2.3833   -0.3136    4.0972 H   0  0  0  0  0  0  0  0  0  0  0  0
   -0.1717   -1.4139    4.5338 H   0  0  0  0  0  0  0  0  0  0  0  0
   -1.1383   -2.2898    3.3464 H   0  0  0  0  0  0  0  0  0  0  0  0
    1.1741   -0.3788    2.7952 H   0  0  0  0  0  0  0  0  0  0  0  0
    1.1614   -2.1180    2.5378 H   0  0  0  0  0  0  0  0  0  0  0  0
   -0.5679   -1.9181    0.7880 H   0  0  0  0  0  0  0  0  0  0  0  0
   -2.2267    1.1494   -0.3410 H   0  0  0  0  0  0  0  0  0  0  0  0
   -0.7619    0.5393   -1.0722 H   0  0  0  0  0  0  0  0  0  0  0  0
   -2.0681   -0.5910   -0.6549 H   0  0  0  0  0  0  0  0  0  0  0  0
    0.9965   -2.8426   -0.7261 H   0  0  0  0  0  0  0  0  0  0  0  0
    4.1631   -0.7155   -2.2582 H   0  0  0  0  0  0  0  0  0  0  0  0
    3.6593    1.2643   -0.8209 H   0  0  0  0  0  0  0  0  0  0  0  0
    1.7103    1.1462    0.7278 H   0  0  0  0  0  0  0  0  0  0  0  0
  1  2  1  0
  2  3  1  0
  3  4  1  0
  4  5  1  0
  5  6  1  0
  6  7  1  0
  5  8  1  0
  8  9  2  0
  9 10  1  0
 10 11  2  0
 11 12  1  0
 12 13  2  0
  6  1  1  0
 13  8  1  0
  1 14  1  0
  1 15  1  0
  2 16  1  0
  2 17  1  0
  3 18  1  0
  3 19  1  0
  4 20  1  0
  4 21  1  0
  5 22  1  0
  7 23  1  0
  7 24  1  0
  7 25  1  0
  9 26  1  0
 11 27  1  0
 12 28  1  0
 13 29  1  0
M  END
>  <mol_id>  (12) 
STL562305

>  <drugclip_rank>  (12) 
16

>  <conformer>  (12) 
0

>  <align_rmsd>  (12) 
0.294

$$$$
Z1558572494
     RDKit          3D

 28 27  0  0  0  0  0  0  0  0999 V2000
    1.2871   -0.2092   -0.2362 Cl  0  0  0  0  0  0  0  0  0  0  0  0
    1.2871   -0.2092   -0.2362 Cl  0  0  0  0  0  0  0  0  0  0  0  0
    1.7605   -1.5394   -1.2456 C   0  0  0  0  0  0  0  0  0  0  0  0
    2.9438   -1.9523   -1.7318 N   0  0  0  0  0  0  0  0  0  0  0  0
    4.1053   -1.3087   -1.5142 C   0  0  0  0  0  0  0  0  0  0  0  0
    4.0475   -0.1648   -0.7461 C   0  0  0  0  0  0  0  0  0  0  0  0
    2.8293    0.2860   -0.2286 C   0  0  0  0  0  0  0  0  0  0  0  0
    1.6452   -0.3848   -0.4601 C   0  0  0  0  0  0  0  0  0  0  0  0
    0.3596    0.0586    0.0656 C   0  0  0  0  0  0  0  0  0  0  0  0
    0.2053    1.1415    0.8065 C   0  0  0  0  0  0  0  0  0  0  0  0
   -1.1026    1.5960    1.3435 C   0  0  0  0  0  0  0  0  0  0  0  0
   -1.9234    0.4645    1.5713 N   0  0  0  0  0  0  0  0  0  0  0  0
   -2.0664   -0.4289    0.4654 C   0  0  0  0  0  0  0  0  0  0  0  0
   -0.8265   -0.7661   -0.2604 C   0  0  0  0  0  0  0  0  0  0  0  0
    0.0063   -0.0302    0.2575 H   0  0  0  0  0  0  0  0  0  0  0  0
    0.0063   -0.0302    0.2575 H   0  0  0  0  0  0  0  0  0  0  0  0
    0.8903   -2.1326   -1.4828 H   0  0  0  0  0  0  0  0  0  0  0  0
    5.0384   -1.6719   -1.9224 H   0  0  0  0  0  0  0  0  0  0  0  0
    4.9545    0.3898   -0.5417 H   0  0  0  0  0  0  0  0  0  0  0  0
    2.8612    1.1696    0.3510 H   0  0  0  0  0  0  0  0  0  0  0  0
    1.0634    1.7470    1.0486 H   0  0  0  0  0  0  0  0  0  0  0  0
   -0.9218    2.0798    2.3362 H   0  0  0  0  0  0  0  0  0  0  0  0
   -1.5690    2.3612    0.6914 H   0  0  0  0  0  0  0  0  0  0  0  0
   -1.8924    0.0489    2.5053 H   0  0  0  0  0  0  0  0  0  0  0  0
   -2.8228    0.0432   -0.2239 H   0  0  0  0  0  0  0  0  0  0  0  0
   -2.5605   -1.3533    0.8391 H   0  0  0  0  0  0  0  0  0  0  0  0
   -0.5225   -1.8309   -0.0514 H   0  0  0  0  0  0  0  0  0  0  0  0
   -0.9756   -0.7254   -1.3590 H   0  0  0  0  0  0  0  0  0  0  0  0
  3  4  2  0
  4  5  1  0
  5  6  2  0
  6  7  1  0
  7  8  2  0
  8  9  1  0
  9 10  2  0
 10 11  1  0
 11 12  1  0
 12 13  1  0
 13 14  1  0
  8  3  1  0
 14  9  1  0
  1 15  1  0
  2 16  1  0
  3 17  1  0
  5 18  1  0
  6 19  1  0
  7 20  1  0
 10 21  1  0
 11 22  1  0
 11 23  1  0
 12 24  1  0
 13 25  1  0
 13 26  1  0
 14 27  1  0
 14 28  1  0
M  END
>  <mol_id>  (13) 
Z1558572494

>  <drugclip_rank>  (13) 
19

>  <conformer>  (13) 
1

>  <align_rmsd>  (13) 
0.455

$$$$
Z2240803613
     RDKit          3D

 31 30  0  0  0  0  0  0  0  0999 V2000
    0.0482   -0.7223    1.3985 Cl  0  0  0  0  0  0  0  0  0  0  0  0
    0.0482   -0.7223    1.3985 Cl  0  0  0  0  0  0  0  0  0  0  0  0
   -1.1251    1.0092    2.4097 C   0  0  0  0  0  0  0  0  0  0  0  0
   -1.3028    0.2583    1.2167 N   0  0  0  0  0  0  0  0  0  0  0  0
   -0.6905   -1.0121    1.1778 C   0  0  2  0  0  0  0  0  0  0  0  0
   -1.1817   -1.9728    2.2791 C   0  0  0  0  0  0  0  0  0  0  0  0
   -0.0606   -2.9832    2.1639 C   0  0  0  0  0  0  0  0  0  0  0  0
    1.0660   -2.1887    2.1947 O   0  0  0  0  0  0  0  0  0  0  0  0
    0.7808   -1.0289    1.5012 C   0  0  1  0  0  0  0  0  0  0  0  0
    1.6545   -0.9348    0.3089 C   0  0  0  0  0  0  0  0  0  0  0  0
    2.2803    0.2727   -0.0380 C   0  0  0  0  0  0  0  0  0  0  0  0
    3.0970    0.3712   -1.1450 C   0  0  0  0  0  0  0  0  0  0  0  0
    3.3175   -0.7261   -1.9413 C   0  0  0  0  0  0  0  0  0  0  0  0
    2.7230   -1.8863   -1.6174 N   0  0  0  0  0  0  0  0  0  0  0  0
    1.9210   -1.9916   -0.5344 C   0  0  0  0  0  0  0  0  0  0  0  0
    1.0795   -0.9646    0.5170 H   0  0  0  0  0  0  0  0  0  0  0  0
    1.0795   -0.9646    0.5170 H   0  0  0  0  0  0  0  0  0  0  0  0
   -2.1190    1.2199    2.8546 H   0  0  0  0  0  0  0  0  0  0  0  0
   -0.6889    2.0119    2.1517 H   0  0  0  0  0  0  0  0  0  0  0  0
   -0.5369    0.5089    3.2044 H   0  0  0  0  0  0  0  0  0  0  0  0
   -2.3131    0.1495    0.9870 H   0  0  0  0  0  0  0  0  0  0  0  0
   -0.8561   -1.5054    0.2074 H   0  0  0  0  0  0  0  0  0  0  0  0
   -1.1321   -1.4417    3.2486 H   0  0  0  0  0  0  0  0  0  0  0  0
   -2.1673   -2.3889    2.0255 H   0  0  0  0  0  0  0  0  0  0  0  0
   -0.0854   -3.7200    2.9968 H   0  0  0  0  0  0  0  0  0  0  0  0
   -0.2315   -3.4937    1.1774 H   0  0  0  0  0  0  0  0  0  0  0  0
    1.0703   -0.1550    2.1386 H   0  0  0  0  0  0  0  0  0  0  0  0
    2.1222    1.1573    0.5763 H   0  0  0  0  0  0  0  0  0  0  0  0
    3.5460    1.3334   -1.3514 H   0  0  0  0  0  0  0  0  0  0  0  0
    3.9600   -0.6122   -2.7960 H   0  0  0  0  0  0  0  0  0  0  0  0
    1.4910   -2.9614   -0.3559 H   0  0  0  0  0  0  0  0  0  0  0  0
  3  4  1  0
  4  5  1  0
  5  6  1  0
  6  7  1  0
  7  8  1  0
  8  9  1  0
  9 10  1  0
 10 11  2  0
 11 12  1  0
 12 13  2  0
 13 14  1  0
 14 15  2  0
  9  5  1  0
 15 10  1  0
  1 16  1  0
  2 17  1  0
  3 18  1  0
  3 19  1  0
  3 20  1  0
  4 21  1  0
  5 22  1  6
  6 23  1  0
  6 24  1  0
  7 25  1  0
  7 26  1  0
  9 27  1  1
 11 28  1  0
 12 29  1  0
 13 30  1  0
 15 31  1  0
M  END
>  <mol_id>  (14) 
Z2240803613

>  <drugclip_rank>  (14) 
21

>  <conformer>  (14) 
10

>  <align_rmsd>  (14) 
0.121

$$$$
Z9308261204
     RDKit          3D

 30 29  0  0  0  0  0  0  0  0999 V2000
   -0.2363   -0.3934    0.4641 Cl  0  0  0  0  0  0  0  0  0  0  0  0
   -1.5631   -2.1447    0.9452 C   0  0  0  0  0  0  0  0  0  0  0  0
   -0.6157   -1.0872    1.5524 C   0  0  0  0  0  0  0  0  0  0  0  0
   -1.1848    0.1816    1.1248 N   0  0  0  0  0  0  0  0  0  0  0  0
   -0.5226    1.2810    1.8468 C   0  0  0  0  0  0  0  0  0  0  0  0
   -1.1513    0.3897   -0.2737 C   0  0  0  0  0  0  0  0  0  0  0  0
    0.0753    0.7450   -0.9699 C   0  0  0  0  0  0  0  0  0  0  0  0
    1.2832   -0.0402   -0.9044 C   0  0  0  0  0  0  0  0  0  0  0  0
    2.2849    0.3504    0.0071 C   0  0  0  0  0  0  0  0  0  0  0  0
    3.4709   -0.3801    0.1051 C   0  0  0  0  0  0  0  0  0  0  0  0
    3.6379   -1.5002   -0.7188 C   0  0  0  0  0  0  0  0  0  0  0  0
    2.6849   -1.8707   -1.5857 N   0  0  0  0  0  0  0  0  0  0  0  0
    1.5458   -1.1673   -1.6776 C   0  0  0  0  0  0  0  0  0  0  0  0
    1.0476   -0.2530   -0.0187 H   0  0  0  0  0  0  0  0  0  0  0  0
   -2.5909   -1.6889    0.8167 H   0  0  0  0  0  0  0  0  0  0  0  0
   -1.6138   -3.0468    1.5832 H   0  0  0  0  0  0  0  0  0  0  0  0
   -1.1644   -2.4315   -0.0423 H   0  0  0  0  0  0  0  0  0  0  0  0
   -0.5620   -1.1596    2.6504 H   0  0  0  0  0  0  0  0  0  0  0  0
    0.3702   -1.2086    1.0915 H   0  0  0  0  0  0  0  0  0  0  0  0
   -0.5829    2.1623    1.2182 H   0  0  0  0  0  0  0  0  0  0  0  0
   -1.2030    1.4453    2.7430 H   0  0  0  0  0  0  0  0  0  0  0  0
    0.4317    1.0059    2.2771 H   0  0  0  0  0  0  0  0  0  0  0  0
   -1.7296   -0.4672   -0.7388 H   0  0  0  0  0  0  0  0  0  0  0  0
   -1.8850    1.2552   -0.4542 H   0  0  0  0  0  0  0  0  0  0  0  0
    0.3706    1.8152   -0.7072 H   0  0  0  0  0  0  0  0  0  0  0  0
   -0.1364    0.8624   -2.0982 H   0  0  0  0  0  0  0  0  0  0  0  0
    2.1101    1.2125    0.6092 H   0  0  0  0  0  0  0  0  0  0  0  0
    4.2562   -0.0824    0.8085 H   0  0  0  0  0  0  0  0  0  0  0  0
    4.5830   -2.0177   -0.5884 H   0  0  0  0  0  0  0  0  0  0  0  0
    0.7584   -1.4640   -2.3855 H   0  0  0  0  0  0  0  0  0  0  0  0
  2  3  1  0
  3  4  1  0
  4  5  1  0
  4  6  1  0
  6  7  1  0
  7  8  1  0
  8  9  2  0
  9 10  1  0
 10 11  2  0
 11 12  1  0
 12 13  2  0
 13  8  1  0
  1 14  1  0
  2 15  1  0
  2 16  1  0
  2 17  1  0
  3 18  1  0
  3 19  1  0
  5 20  1  0
  5 21  1  0
  5 22  1  0
  6 23  1  0
  6 24  1  0
  7 25  1  0
  7 26  1  0
  9 27  1  0
 10 28  1  0
 11 29  1  0
 13 30  1  0
M  END
>  <mol_id>  (15) 
Z9308261204

>  <drugclip_rank>  (15) 
22

>  <conformer>  (15) 
10

>  <align_rmsd>  (15) 
0.118

$$$$
Z5331825334
     RDKit          3D

 33 32  0  0  0  0  0  0  0  0999 V2000
    1.9879   -0.4564   -0.5364 Cl  0  0  0  0  0  0  0  0  0  0  0  0
    1.9879   -0.4564   -0.5364 Cl  0  0  0  0  0  0  0  0  0  0  0  0
    5.2132   -1.9128   -2.4246 C   0  0  0  0  0  0  0  0  0  0  0  0
    4.0747   -1.3108   -1.6717 C   0  0  0  0  0  0  0  0  0  0  0  0
    4.2861   -0.1449   -0.9789 C   0  0  0  0  0  0  0  0  0  0  0  0
    3.2455    0.4341   -0.2720 C   0  0  0  0  0  0  0  0  0  0  0  0
    2.0275   -0.2133   -0.3081 C   0  0  0  0  0  0  0  0  0  0  0  0
    1.8154   -1.3852   -1.0046 C   0  0  0  0  0  0  0  0  0  0  0  0
    2.8801   -1.8907   -1.6713 N   0  0  0  0  0  0  0  0  0  0  0  0
    0.9047    0.3980    0.4459 C   0  0  0  0  0  0  0  0  0  0  0  0
   -0.2563    0.7940   -0.4327 C   0  0  0  0  0  0  0  0  0  0  0  0
   -1.3317    1.3205    0.5210 C   0  0  0  0  0  0  0  0  0  0  0  0
   -1.7844    0.2727    1.3962 N   0  0  0  0  0  0  0  0  0  0  0  0
   -0.9570   -0.9269    1.3308 C   0  0  0  0  0  0  0  0  0  0  0  0
    0.4706   -0.5178    1.5534 C   0  0  0  0  0  0  0  0  0  0  0  0
    0.8150   -0.0145    0.0145 H   0  0  0  0  0  0  0  0  0  0  0  0
    0.8150   -0.0145    0.0145 H   0  0  0  0  0  0  0  0  0  0  0  0
    4.9551   -1.8131   -3.5084 H   0  0  0  0  0  0  0  0  0  0  0  0
    6.1605   -1.3928   -2.1912 H   0  0  0  0  0  0  0  0  0  0  0  0
    5.3272   -2.9916   -2.1817 H   0  0  0  0  0  0  0  0  0  0  0  0
    5.2597    0.3444   -0.9684 H   0  0  0  0  0  0  0  0  0  0  0  0
    3.3843    1.3627    0.2892 H   0  0  0  0  0  0  0  0  0  0  0  0
    0.8679   -1.8955   -1.0370 H   0  0  0  0  0  0  0  0  0  0  0  0
    1.2619    1.3351    0.9437 H   0  0  0  0  0  0  0  0  0  0  0  0
   -0.6758   -0.0647   -0.9905 H   0  0  0  0  0  0  0  0  0  0  0  0
    0.0058    1.6048   -1.1119 H   0  0  0  0  0  0  0  0  0  0  0  0
   -0.8289    2.1192    1.1064 H   0  0  0  0  0  0  0  0  0  0  0  0
   -2.1733    1.8022   -0.0231 H   0  0  0  0  0  0  0  0  0  0  0  0
   -1.7016    0.6043    2.4023 H   0  0  0  0  0  0  0  0  0  0  0  0
   -1.1325   -1.5477    0.4530 H   0  0  0  0  0  0  0  0  0  0  0  0
   -1.2600   -1.5185    2.2422 H   0  0  0  0  0  0  0  0  0  0  0  0
    1.0975   -1.4199    1.5796 H   0  0  0  0  0  0  0  0  0  0  0  0
    0.5299   -0.0593    2.5572 H   0  0  0  0  0  0  0  0  0  0  0  0
  3  4  1  0
  4  5  2  0
  5  6  1  0
  6  7  2  0
  7  8  1  0
  8  9  2  0
  7 10  1  0
 10 11  1  0
 11 12  1  0
 12 13  1  0
 13 14  1  0
 14 15  1  0
  9  4  1  0
 15 10  1  0
  1 16  1  0
  2 17  1  0
  3 18  1  0
  3 19  1  0
  3 20  1  0
  5 21  1  0
  6 22  1  0
  8 23  1  0
 10 24  1  0
 11 25  1  0
 11 26  1  0
 12 27  1  0
 12 28  1  0
 13 29  1  0
 14 30  1  0
 14 31  1  0
 15 32  1  0
 15 33  1  0
M  END
>  <mol_id>  (16) 
Z5331825334

>  <drugclip_rank>  (16) 
23

>  <conformer>  (16) 
2

>  <align_rmsd>  (16) 
0.359

$$$$
OSSL_789650
     RDKit          3D

 24 24  0  0  0  0  0  0  0  0999 V2000
    2.5651    0.4662   -0.0134 N   0  0  0  0  0  0  0  0  0  0  0  0
    3.3013    0.4047   -1.1466 C   0  0  0  0  0  0  0  0  0  0  0  0
    3.3750   -0.7377   -1.9231 C   0  0  0  0  0  0  0  0  0  0  0  0
    2.7183   -1.8733   -1.6019 N   0  0  0  0  0  0  0  0  0  0  0  0
    1.9824   -1.8120   -0.4663 C   0  0  0  0  0  0  0  0  0  0  0  0
    1.8891   -0.6647    0.3173 C   0  0  0  0  0  0  0  0  0  0  0  0
    1.0858   -0.6623    1.5884 C   0  0  0  0  0  0  0  0  0  0  0  0
    0.0570    0.4773    1.6930 C   0  0  0  0  0  0  0  0  0  0  0  0
   -1.2786    0.1552    1.1406 N   0  0  0  0  0  0  0  0  0  0  0  0
   -1.2704    0.1243   -0.3244 C   0  0  0  0  0  0  0  0  0  0  0  0
   -2.2521    1.1556    1.5944 C   0  0  0  0  0  0  0  0  0  0  0  0
    3.8371    1.3077   -1.4150 H   0  0  0  0  0  0  0  0  0  0  0  0
    3.9696   -0.7710   -2.8285 H   0  0  0  0  0  0  0  0  0  0  0  0
    1.4589   -2.7254   -0.2034 H   0  0  0  0  0  0  0  0  0  0  0  0
    0.5893   -1.6288    1.7408 H   0  0  0  0  0  0  0  0  0  0  0  0
    1.8033   -0.5608    2.4134 H   0  0  0  0  0  0  0  0  0  0  0  0
    0.4429    1.4161    1.2752 H   0  0  0  0  0  0  0  0  0  0  0  0
   -0.0728    0.6524    2.7700 H   0  0  0  0  0  0  0  0  0  0  0  0
   -0.8795    1.0515   -0.7585 H   0  0  0  0  0  0  0  0  0  0  0  0
   -2.2842   -0.0320   -0.7118 H   0  0  0  0  0  0  0  0  0  0  0  0
   -0.6816   -0.7171   -0.6971 H   0  0  0  0  0  0  0  0  0  0  0  0
   -3.2549    0.9132    1.2249 H   0  0  0  0  0  0  0  0  0  0  0  0
   -1.9939    2.1664    1.2578 H   0  0  0  0  0  0  0  0  0  0  0  0
   -2.3191    1.1610    2.6881 H   0  0  0  0  0  0  0  0  0  0  0  0
  1  2  2  0
  2  3  1  0
  3  4  2  0
  4  5  1  0
  5  6  2  0
  6  7  1  0
  7  8  1  0
  8  9  1  0
  9 10  1  0
  9 11  1  0
  6  1  1  0
  2 12  1  0
  3 13  1  0
  5 14  1  0
  7 15  1  0
  7 16  1  0
  8 17  1  0
  8 18  1  0
 10 19  1  0
 10 20  1  0
 10 21  1  0
 11 22  1  0
 11 23  1  0
 11 24  1  0
M  END
>  <mol_id>  (17) 
OSSL_789650

>  <drugclip_rank>  (17) 
24

>  <conformer>  (17) 
16

>  <align_rmsd>  (17) 
0.037

$$$$
Z1198172584
     RDKit          3D

 25 26  0  0  0  0  0  0  0  0999 V2000
    1.7132   -1.2574   -1.3098 C   0  0  0  0  0  0  0  0  0  0  0  0
    2.8435   -1.9086   -1.6697 N   0  0  0  0  0  0  0  0  0  0  0  0
    4.0084   -1.3674   -1.2591 C   0  0  0  0  0  0  0  0  0  0  0  0
    4.0927   -0.2082   -0.5089 C   0  0  0  0  0  0  0  0  0  0  0  0
    2.9103    0.4365   -0.1526 C   0  0  0  0  0  0  0  0  0  0  0  0
    1.6749   -0.0888   -0.5470 C   0  0  0  0  0  0  0  0  0  0  0  0
    0.3396    0.5461   -0.2048 C   0  0  0  0  0  0  0  0  0  0  0  0
   -0.5661   -0.4242    0.6269 C   0  0  0  0  0  0  0  0  0  0  0  0
   -1.6457    0.2766    1.3498 N   0  0  0  0  0  0  0  0  0  0  0  0
   -1.0457    1.2193    2.3129 C   0  0  0  0  0  0  0  0  0  0  0  0
    0.3060    1.8256    1.8660 C   0  0  0  0  0  0  0  0  0  0  0  0
    0.4550    1.9017    0.4018 N   0  0  0  0  0  0  0  0  0  0  0  0
    0.8013   -1.7245   -1.6738 H   0  0  0  0  0  0  0  0  0  0  0  0
    4.9022   -1.9053   -1.5610 H   0  0  0  0  0  0  0  0  0  0  0  0
    5.0558    0.1892   -0.2097 H   0  0  0  0  0  0  0  0  0  0  0  0
    2.9644    1.3538    0.4284 H   0  0  0  0  0  0  0  0  0  0  0  0
   -0.1645    0.7163   -1.1672 H   0  0  0  0  0  0  0  0  0  0  0  0
   -1.0250   -1.1601   -0.0439 H   0  0  0  0  0  0  0  0  0  0  0  0
    0.0310   -0.9952    1.3507 H   0  0  0  0  0  0  0  0  0  0  0  0
   -2.1754    0.8181    0.6667 H   0  0  0  0  0  0  0  0  0  0  0  0
   -0.9100    0.7113    3.2746 H   0  0  0  0  0  0  0  0  0  0  0  0
   -1.7678    2.0266    2.4829 H   0  0  0  0  0  0  0  0  0  0  0  0
    0.4081    2.8322    2.2865 H   0  0  0  0  0  0  0  0  0  0  0  0
    1.1299    1.2323    2.2814 H   0  0  0  0  0  0  0  0  0  0  0  0
   -0.3245    2.4572    0.0499 H   0  0  0  0  0  0  0  0  0  0  0  0
  1  2  2  0
  2  3  1  0
  3  4  2  0
  4  5  1  0
  5  6  2  0
  6  7  1  0
  7  8  1  0
  8  9  1  0
  9 10  1  0
 10 11  1  0
 11 12  1  0
  6  1  1  0
 12  7  1  0
  1 13  1  0
  3 14  1  0
  4 15  1  0
  5 16  1  0
  7 17  1  0
  8 18  1  0
  8 19  1  0
  9 20  1  0
 10 21  1  0
 10 22  1  0
 11 23  1  0
 11 24  1  0
 12 25  1  0
M  END
>  <mol_id>  (18) 
Z1198172584

>  <drugclip_rank>  (18) 
25

>  <conformer>  (18) 
9

>  <align_rmsd>  (18) 
0.244

$$$$
MCULE-9278696945
     RDKit          3D

 26 27  0  0  0  0  0  0  0  0999 V2000
   -2.4454   -0.0251    2.7103 C   0  0  0  0  0  0  0  0  0  0  0  0
   -1.8881    0.1909    1.3791 N   0  0  0  0  0  0  0  0  0  0  0  0
   -0.6477    0.9579    1.4842 C   0  0  0  0  0  0  0  0  0  0  0  0
   -0.0652    1.1470    0.0641 C   0  0  0  0  0  0  0  0  0  0  0  0
    1.3239    0.7884    0.6699 C   0  0  0  0  0  0  0  0  0  0  0  0
    2.3724    0.0138   -0.2252 C   0  0  0  0  0  0  0  0  0  0  0  0
    2.0772   -1.1757   -0.9024 C   0  0  0  0  0  0  0  0  0  0  0  0
    2.9339   -1.8799   -1.6825 N   0  0  0  0  0  0  0  0  0  0  0  0
    4.1783   -1.3834   -1.8109 C   0  0  0  0  0  0  0  0  0  0  0  0
    4.6004   -0.2202   -1.1972 C   0  0  0  0  0  0  0  0  0  0  0  0
    3.6882    0.4740   -0.4040 C   0  0  0  0  0  0  0  0  0  0  0  0
    0.5381    0.0057    1.7628 C   0  0  0  0  0  0  0  0  0  0  0  0
   -2.7011    0.9229    3.1951 H   0  0  0  0  0  0  0  0  0  0  0  0
   -3.3610   -0.6191    2.6283 H   0  0  0  0  0  0  0  0  0  0  0  0
   -1.7526   -0.5787    3.3523 H   0  0  0  0  0  0  0  0  0  0  0  0
   -2.5968    0.6450    0.8020 H   0  0  0  0  0  0  0  0  0  0  0  0
   -0.6778    1.8740    2.0846 H   0  0  0  0  0  0  0  0  0  0  0  0
   -0.4217    0.4415   -0.6969 H   0  0  0  0  0  0  0  0  0  0  0  0
   -0.1464    2.1603   -0.3410 H   0  0  0  0  0  0  0  0  0  0  0  0
    1.7873    1.6873    1.1098 H   0  0  0  0  0  0  0  0  0  0  0  0
    1.0843   -1.6154   -0.8282 H   0  0  0  0  0  0  0  0  0  0  0  0
    4.8480   -1.9627   -2.4393 H   0  0  0  0  0  0  0  0  0  0  0  0
    5.6137    0.1406   -1.3305 H   0  0  0  0  0  0  0  0  0  0  0  0
    4.0061    1.3921    0.0858 H   0  0  0  0  0  0  0  0  0  0  0  0
    0.9593    0.0701    2.7708 H   0  0  0  0  0  0  0  0  0  0  0  0
    0.3652   -1.0517    1.5274 H   0  0  0  0  0  0  0  0  0  0  0  0
  1  2  1  0
  2  3  1  0
  3  4  1  0
  4  5  1  0
  5  6  1  0
  6  7  2  0
  7  8  1  0
  8  9  2  0
  9 10  1  0
 10 11  2  0
  5 12  1  0
 12  3  1  0
 11  6  1  0
  1 13  1  0
  1 14  1  0
  1 15  1  0
  2 16  1  0
  3 17  1  0
  4 18  1  0
  4 19  1  0
  5 20  1  0
  7 21  1  0
  9 22  1  0
 10 23  1  0
 11 24  1  0
 12 25  1  0
 12 26  1  0
M  END
>  <mol_id>  (19) 
MCULE-9278696945

>  <drugclip_rank>  (19) 
26

>  <conformer>  (19) 
0

>  <align_rmsd>  (19) 
0.501

$$$$
MCULE-2640903763
     RDKit          3D

 27 28  0  0  0  0  0  0  0  0999 V2000
   -1.1296    0.8461   -0.0987 C   0  0  0  0  0  0  0  0  0  0  0  0
   -1.3425    0.1827    1.1811 N   0  0  0  0  0  0  0  0  0  0  0  0
   -0.4581   -0.9767    1.3661 C   0  0  1  0  0  0  0  0  0  0  0  0
    1.0531   -0.7133    1.5896 C   0  0  2  0  0  0  0  0  0  0  0  0
    1.8966   -0.7062    0.3422 C   0  0  0  0  0  0  0  0  0  0  0  0
    2.0214   -1.8328   -0.4659 C   0  0  0  0  0  0  0  0  0  0  0  0
    2.7415   -1.8785   -1.6111 N   0  0  0  0  0  0  0  0  0  0  0  0
    3.3959   -0.7512   -1.9591 C   0  0  0  0  0  0  0  0  0  0  0  0
    3.3579    0.4186   -1.2201 C   0  0  0  0  0  0  0  0  0  0  0  0
    2.5976    0.4376   -0.0540 C   0  0  0  0  0  0  0  0  0  0  0  0
    1.5337   -1.7630    2.4626 O   0  0  0  0  0  0  0  0  0  0  0  0
    0.4122   -2.5344    2.9056 C   0  0  0  0  0  0  0  0  0  0  0  0
   -0.8149   -1.6884    2.6618 C   0  0  0  0  0  0  0  0  0  0  0  0
   -1.8914    1.6209   -0.2329 H   0  0  0  0  0  0  0  0  0  0  0  0
   -0.1596    1.3474   -0.1335 H   0  0  0  0  0  0  0  0  0  0  0  0
   -1.2127    0.1484   -0.9381 H   0  0  0  0  0  0  0  0  0  0  0  0
   -2.3134   -0.1292    1.2272 H   0  0  0  0  0  0  0  0  0  0  0  0
   -0.6143   -1.6864    0.5423 H   0  0  0  0  0  0  0  0  0  0  0  0
    1.1911    0.2234    2.1450 H   0  0  0  0  0  0  0  0  0  0  0  0
    1.5323   -2.7681   -0.2066 H   0  0  0  0  0  0  0  0  0  0  0  0
    3.9740   -0.8157   -2.8762 H   0  0  0  0  0  0  0  0  0  0  0  0
    3.9086    1.2947   -1.5430 H   0  0  0  0  0  0  0  0  0  0  0  0
    2.5543    1.3461    0.5419 H   0  0  0  0  0  0  0  0  0  0  0  0
    0.5394   -2.7977    3.9592 H   0  0  0  0  0  0  0  0  0  0  0  0
    0.3828   -3.4573    2.3162 H   0  0  0  0  0  0  0  0  0  0  0  0
   -1.7314   -2.2825    2.5985 H   0  0  0  0  0  0  0  0  0  0  0  0
   -0.9303   -0.9676    3.4817 H   0  0  0  0  0  0  0  0  0  0  0  0
  1  2  1  0
  2  3  1  0
  3  4  1  0
  4  5  1  0
  5  6  2  0
  6  7  1  0
  7  8  2  0
  8  9  1  0
  9 10  2  0
  4 11  1  0
 11 12  1  0
 12 13  1  0
 13  3  1  0
 10  5  1  0
  1 14  1  0
  1 15  1  0
  1 16  1  0
  2 17  1  0
  3 18  1  6
  4 19  1  1
  6 20  1  0
  8 21  1  0
  9 22  1  0
 10 23  1  0
 12 24  1  0
 12 25  1  0
 13 26  1  0
 13 27  1  0
M  END
>  <mol_id>  (20) 
MCULE-2640903763

>  <drugclip_rank>  (20) 
28

>  <conformer>  (20) 
2

>  <align_rmsd>  (20) 
0.028

$$$$
Z2373839498
     RDKit          3D

 28 27  0  0  0  0  0  0  0  0999 V2000
    0.4003   -1.0039   -0.1866 Cl  0  0  0  0  0  0  0  0  0  0  0  0
    0.4003   -1.0039   -0.1866 Cl  0  0  0  0  0  0  0  0  0  0  0  0
    2.7454   -1.7065   -1.5020 N   0  0  0  0  0  0  0  0  0  0  0  0
    4.0644   -1.5838   -1.7827 C   0  0  0  0  0  0  0  0  0  0  0  0
    4.7607   -0.4734   -1.3001 C   0  0  0  0  0  0  0  0  0  0  0  0
    4.1261    0.4933   -0.5463 C   0  0  0  0  0  0  0  0  0  0  0  0
    2.7816    0.3257   -0.2858 C   0  0  0  0  0  0  0  0  0  0  0  0
    2.0917   -0.7859   -0.7708 C   0  0  0  0  0  0  0  0  0  0  0  0
    0.6710   -0.9417   -0.4828 C   0  0  0  0  0  0  0  0  0  0  0  0
    0.0344   -1.9927   -0.9456 C   0  0  0  0  0  0  0  0  0  0  0  0
   -1.3956   -2.2474   -0.7146 C   0  0  0  0  0  0  0  0  0  0  0  0
   -2.0483   -1.3358    0.2463 C   0  0  0  0  0  0  0  0  0  0  0  0
   -1.2826   -0.3092    0.8370 N   0  0  0  0  0  0  0  0  0  0  0  0
   -0.0357    0.0569    0.3097 C   0  0  0  0  0  0  0  0  0  0  0  0
    1.7221   -0.7466   -0.4414 H   0  0  0  0  0  0  0  0  0  0  0  0
    1.7221   -0.7466   -0.4414 H   0  0  0  0  0  0  0  0  0  0  0  0
    4.6148   -2.3063   -2.3666 H   0  0  0  0  0  0  0  0  0  0  0  0
    5.8250   -0.3842   -1.5326 H   0  0  0  0  0  0  0  0  0  0  0  0
    4.6469    1.3695   -0.1577 H   0  0  0  0  0  0  0  0  0  0  0  0
    2.2950    1.0930    0.3080 H   0  0  0  0  0  0  0  0  0  0  0  0
    0.5890   -2.7097   -1.5272 H   0  0  0  0  0  0  0  0  0  0  0  0
   -1.5137   -3.3209   -0.4530 H   0  0  0  0  0  0  0  0  0  0  0  0
   -1.8891   -2.1402   -1.7232 H   0  0  0  0  0  0  0  0  0  0  0  0
   -2.4587   -1.9645    1.0850 H   0  0  0  0  0  0  0  0  0  0  0  0
   -2.9499   -0.8601   -0.1965 H   0  0  0  0  0  0  0  0  0  0  0  0
   -1.3912   -0.2301    1.8664 H   0  0  0  0  0  0  0  0  0  0  0  0
   -0.1256    1.0054   -0.2596 H   0  0  0  0  0  0  0  0  0  0  0  0
    0.6340    0.2952    1.1876 H   0  0  0  0  0  0  0  0  0  0  0  0
  3  4  2  0
  4  5  1  0
  5  6  2  0
  6  7  1  0
  7  8  2  0
  8  9  1  0
  9 10  2  0
 10 11  1  0
 11 12  1  0
 12 13  1  0
 13 14  1  0
  8  3  1  0
 14  9  1  0
  1 15  1  0
  2 16  1  0
  4 17  1  0
  5 18  1  0
  6 19  1  0
  7 20  1  0
 10 21  1  0
 11 22  1  0
 11 23  1  0
 12 24  1  0
 12 25  1  0
 13 26  1  0
 14 27  1  0
 14 28  1  0
M  END
>  <mol_id>  (21) 
Z2373839498

>  <drugclip_rank>  (21) 
29

>  <conformer>  (21) 
3

>  <align_rmsd>  (21) 
0.703

$$$$
MCULE-1931732981
     RDKit          3D

 30 31  0  0  0  0  0  0  0  0999 V2000
   -0.9733    0.1556    1.0330 N   0  0  0  0  0  0  0  0  0  0  0  0
   -1.4912    0.4429   -0.3101 C   0  0  0  0  0  0  0  0  0  0  0  0
   -2.0661   -0.2938    1.9133 C   0  0  0  0  0  0  0  0  0  0  0  0
   -2.1778   -1.8033    1.7295 C   0  0  0  0  0  0  0  0  0  0  0  0
   -0.8988   -2.2186    1.0115 C   0  0  0  0  0  0  0  0  0  0  0  0
   -0.0080   -0.9741    1.0728 C   0  0  0  0  0  0  0  0  0  0  0  0
    1.1590   -0.8786    0.1192 C   0  0  0  0  0  0  0  0  0  0  0  0
    1.5511   -1.9155   -0.7196 C   0  0  0  0  0  0  0  0  0  0  0  0
    2.6115   -1.8671   -1.5622 N   0  0  0  0  0  0  0  0  0  0  0  0
    3.3425   -0.7320   -1.5774 C   0  0  0  0  0  0  0  0  0  0  0  0
    3.0467    0.3557   -0.7683 C   0  0  0  0  0  0  0  0  0  0  0  0
    1.9507    0.2758    0.0888 C   0  0  0  0  0  0  0  0  0  0  0  0
    4.7461   -0.6284   -2.6753 S   0  0  0  0  0  0  0  0  0  0  0  0
    4.6723   -2.2598   -3.4583 C   0  0  0  0  0  0  0  0  0  0  0  0
   -0.6994    0.8068   -0.9724 H   0  0  0  0  0  0  0  0  0  0  0  0
   -1.9695   -0.4189   -0.7876 H   0  0  0  0  0  0  0  0  0  0  0  0
   -2.2310    1.2503   -0.2582 H   0  0  0  0  0  0  0  0  0  0  0  0
   -3.0163    0.2206    1.7309 H   0  0  0  0  0  0  0  0  0  0  0  0
   -1.7879   -0.0736    2.9517 H   0  0  0  0  0  0  0  0  0  0  0  0
   -3.0524   -2.0671    1.1248 H   0  0  0  0  0  0  0  0  0  0  0  0
   -2.2708   -2.3076    2.6971 H   0  0  0  0  0  0  0  0  0  0  0  0
   -0.4296   -3.0837    1.4924 H   0  0  0  0  0  0  0  0  0  0  0  0
   -1.1423   -2.5042   -0.0189 H   0  0  0  0  0  0  0  0  0  0  0  0
    0.4484   -0.9628    2.0752 H   0  0  0  0  0  0  0  0  0  0  0  0
    1.0189   -2.8617   -0.7501 H   0  0  0  0  0  0  0  0  0  0  0  0
    3.6522    1.2555   -0.7950 H   0  0  0  0  0  0  0  0  0  0  0  0
    1.7078    1.1207    0.7305 H   0  0  0  0  0  0  0  0  0  0  0  0
    3.7317   -2.3884   -4.0010 H   0  0  0  0  0  0  0  0  0  0  0  0
    5.4943   -2.3461   -4.1744 H   0  0  0  0  0  0  0  0  0  0  0  0
    4.7825   -3.0541   -2.7147 H   0  0  0  0  0  0  0  0  0  0  0  0
  1  2  1  0
  1  3  1  0
  3  4  1  0
  4  5  1  0
  5  6  1  0
  6  7  1  0
  7  8  2  0
  8  9  1  0
  9 10  2  0
 10 11  1  0
 11 12  2  0
 10 13  1  0
 13 14  1  0
  6  1  1  0
 12  7  1  0
  2 15  1  0
  2 16  1  0
  2 17  1  0
  3 18  1  0
  3 19  1  0
  4 20  1  0
  4 21  1  0
  5 22  1  0
  5 23  1  0
  6 24  1  0
  8 25  1  0
 11 26  1  0
 12 27  1  0
 14 28  1  0
 14 29  1  0
 14 30  1  0
M  END
>  <mol_id>  (22) 
MCULE-1931732981

>  <drugclip_rank>  (22) 
30

>  <conformer>  (22) 
36

>  <align_rmsd>  (22) 
0.285

$$$$
FCG1837466864
     RDKit          3D

 28 29  0  0  0  0  0  0  0  0999 V2000
   -2.8616    0.1652    0.5461 C   0  0  0  0  0  0  0  0  0  0  0  0
   -1.5884    0.1748    1.2627 N   0  0  0  0  0  0  0  0  0  0  0  0
   -0.9452   -1.1575    1.2054 C   0  0  0  0  0  0  0  0  0  0  0  0
    0.4471   -1.1772    1.8833 C   0  0  0  0  0  0  0  0  0  0  0  0
    1.3411   -0.1375    1.3264 N   0  0  0  0  0  0  0  0  0  0  0  0
    0.7076    1.2025    1.3907 C   0  0  0  0  0  0  0  0  0  0  0  0
   -0.6754    1.1927    0.6939 C   0  0  0  0  0  0  0  0  0  0  0  0
    2.1330   -0.4110    0.2092 C   0  0  0  0  0  0  0  0  0  0  0  0
    3.1306    0.4861   -0.1982 C   0  0  0  0  0  0  0  0  0  0  0  0
    3.9428    0.2228   -1.3031 C   0  0  0  0  0  0  0  0  0  0  0  0
    3.7515   -0.9596   -1.9898 C   0  0  0  0  0  0  0  0  0  0  0  0
    2.8288   -1.8743   -1.6419 N   0  0  0  0  0  0  0  0  0  0  0  0
    2.0634   -1.5808   -0.5562 C   0  0  0  0  0  0  0  0  0  0  0  0
   -3.5459   -0.5659    0.9905 H   0  0  0  0  0  0  0  0  0  0  0  0
   -3.3515    1.1422    0.6223 H   0  0  0  0  0  0  0  0  0  0  0  0
   -2.7402   -0.0773   -0.5157 H   0  0  0  0  0  0  0  0  0  0  0  0
   -1.5829   -1.8885    1.7167 H   0  0  0  0  0  0  0  0  0  0  0  0
   -0.8481   -1.4829    0.1620 H   0  0  0  0  0  0  0  0  0  0  0  0
    0.3182   -0.9713    2.9543 H   0  0  0  0  0  0  0  0  0  0  0  0
    0.8960   -2.1755    1.8307 H   0  0  0  0  0  0  0  0  0  0  0  0
    1.3265    1.9945    0.9575 H   0  0  0  0  0  0  0  0  0  0  0  0
    0.5755    1.4684    2.4478 H   0  0  0  0  0  0  0  0  0  0  0  0
   -0.5350    1.0209   -0.3817 H   0  0  0  0  0  0  0  0  0  0  0  0
   -1.1237    2.1864    0.8130 H   0  0  0  0  0  0  0  0  0  0  0  0
    3.3162    1.3949    0.3672 H   0  0  0  0  0  0  0  0  0  0  0  0
    4.7134    0.9219   -1.6064 H   0  0  0  0  0  0  0  0  0  0  0  0
    4.3573   -1.2128   -2.8544 H   0  0  0  0  0  0  0  0  0  0  0  0
    1.3488   -2.3648   -0.3311 H   0  0  0  0  0  0  0  0  0  0  0  0
  1  2  1  0
  2  3  1  0
  3  4  1  0
  4  5  1  0
  5  6  1  0
  6  7  1  0
  5  8  1  0
  8  9  2  0
  9 10  1  0
 10 11  2  0
 11 12  1  0
 12 13  2  0
  7  2  1  0
 13  8  1  0
  1 14  1  0
  1 15  1  0
  1 16  1  0
  3 17  1  0
  3 18  1  0
  4 19  1  0
  4 20  1  0
  6 21  1  0
  6 22  1  0
  7 23  1  0
  7 24  1  0
  9 25  1  0
 10 26  1  0
 11 27  1  0
 13 28  1  0
M  END
>  <mol_id>  (23) 
FCG1837466864

>  <drugclip_rank>  (23) 
31

>  <conformer>  (23) 
0

>  <align_rmsd>  (23) 
0.246

$$$$
Z3770428479
     RDKit          3D

 25 25  0  0  0  0  0  0  0  0999 V2000
    1.2486   -0.1328   -0.2303 Cl  0  0  0  0  0  0  0  0  0  0  0  0
    1.7147   -1.4797   -1.3277 C   0  0  0  0  0  0  0  0  0  0  0  0
    2.9090   -1.9587   -1.7248 N   0  0  0  0  0  0  0  0  0  0  0  0
    4.0215   -1.3114   -1.3524 C   0  0  0  0  0  0  0  0  0  0  0  0
    3.9489   -0.1736   -0.5757 C   0  0  0  0  0  0  0  0  0  0  0  0
    2.7348    0.2708   -0.2009 N   0  0  0  0  0  0  0  0  0  0  0  0
    1.5868   -0.3481   -0.5519 C   0  0  0  0  0  0  0  0  0  0  0  0
    0.3011    0.1757   -0.1189 C   0  0  0  0  0  0  0  0  0  0  0  0
   -0.8444   -0.3640   -0.4161 C   0  0  0  0  0  0  0  0  0  0  0  0
   -2.0782    0.3092    0.1153 C   0  0  0  0  0  0  0  0  0  0  0  0
   -1.8485    0.4548    1.5384 N   0  0  0  0  0  0  0  0  0  0  0  0
   -0.7649    1.3647    1.7850 C   0  0  0  0  0  0  0  0  0  0  0  0
    0.2796    1.4152    0.7235 C   0  0  0  0  0  0  0  0  0  0  0  0
    0.0452    0.2927    0.2982 H   0  0  0  0  0  0  0  0  0  0  0  0
    0.8450   -2.0340   -1.6516 H   0  0  0  0  0  0  0  0  0  0  0  0
    5.0167   -1.6382   -1.6342 H   0  0  0  0  0  0  0  0  0  0  0  0
    4.8564    0.3666   -0.2637 H   0  0  0  0  0  0  0  0  0  0  0  0
   -0.9062   -1.2457   -1.0107 H   0  0  0  0  0  0  0  0  0  0  0  0
   -2.9993   -0.2136   -0.1277 H   0  0  0  0  0  0  0  0  0  0  0  0
   -2.0233    1.3582   -0.2993 H   0  0  0  0  0  0  0  0  0  0  0  0
   -1.6837   -0.4551    2.0128 H   0  0  0  0  0  0  0  0  0  0  0  0
   -0.3125    1.1378    2.7869 H   0  0  0  0  0  0  0  0  0  0  0  0
   -1.2244    2.3842    1.9259 H   0  0  0  0  0  0  0  0  0  0  0  0
    0.0705    2.2427   -0.0159 H   0  0  0  0  0  0  0  0  0  0  0  0
    1.2787    1.5812    1.1649 H   0  0  0  0  0  0  0  0  0  0  0  0
  2  3  2  0
  3  4  1  0
  4  5  2  0
  5  6  1  0
  6  7  2  0
  7  8  1  0
  8  9  2  0
  9 10  1  0
 10 11  1  0
 11 12  1  0
 12 13  1  0
  7  2  1  0
 13  8  1  0
  1 14  1  0
  2 15  1  0
  4 16  1  0
  5 17  1  0
  9 18  1  0
 10 19  1  0
 10 20  1  0
 11 21  1  0
 12 22  1  0
 12 23  1  0
 13 24  1  0
 13 25  1  0
M  END
>  <mol_id>  (24) 
Z3770428479

>  <drugclip_rank>  (24) 
32

>  <conformer>  (24) 
1

>  <align_rmsd>  (24) 
0.408

$$$$
Z3235143301
     RDKit          3D

 28 27  0  0  0  0  0  0  0  0999 V2000
   -0.0820    0.0233   -0.1251 Cl  0  0  0  0  0  0  0  0  0  0  0  0
   -0.0820    0.0233   -0.1251 Cl  0  0  0  0  0  0  0  0  0  0  0  0
    2.8851    0.4350   -0.1498 C   0  0  0  0  0  0  0  0  0  0  0  0
    4.0782   -0.1752   -0.5327 C   0  0  0  0  0  0  0  0  0  0  0  0
    4.0154   -1.3461   -1.2861 C   0  0  0  0  0  0  0  0  0  0  0  0
    2.8090   -1.8771   -1.6371 N   0  0  0  0  0  0  0  0  0  0  0  0
    1.6428   -1.3092   -1.2812 C   0  0  0  0  0  0  0  0  0  0  0  0
    1.6890   -0.1481   -0.5343 C   0  0  0  0  0  0  0  0  0  0  0  0
    0.4042    0.4868   -0.1363 C   0  0  0  0  0  0  0  0  0  0  0  0
   -0.2536   -0.2900    0.9752 C   0  0  0  0  0  0  0  0  0  0  0  0
   -1.5467    0.2196    1.2774 N   0  0  0  0  0  0  0  0  0  0  0  0
   -2.3570    0.3336    0.1087 C   0  0  0  0  0  0  0  0  0  0  0  0
   -1.6499    1.0477   -1.0326 C   0  0  0  0  0  0  0  0  0  0  0  0
   -0.4041    0.4818   -1.2650 O   0  0  0  0  0  0  0  0  0  0  0  0
    1.2554   -0.0335   -0.4253 H   0  0  0  0  0  0  0  0  0  0  0  0
    1.2554   -0.0335   -0.4253 H   0  0  0  0  0  0  0  0  0  0  0  0
    2.9394    1.3446    0.4354 H   0  0  0  0  0  0  0  0  0  0  0  0
    5.0198    0.2699   -0.2390 H   0  0  0  0  0  0  0  0  0  0  0  0
    4.9298   -1.8385   -1.5954 H   0  0  0  0  0  0  0  0  0  0  0  0
    0.6998   -1.7572   -1.5767 H   0  0  0  0  0  0  0  0  0  0  0  0
    0.5482    1.5405    0.1715 H   0  0  0  0  0  0  0  0  0  0  0  0
    0.3525   -0.2943    1.8795 H   0  0  0  0  0  0  0  0  0  0  0  0
   -0.3801   -1.3326    0.5817 H   0  0  0  0  0  0  0  0  0  0  0  0
   -1.6072    0.9782    1.9633 H   0  0  0  0  0  0  0  0  0  0  0  0
   -3.3130    0.8319    0.2561 H   0  0  0  0  0  0  0  0  0  0  0  0
   -2.5851   -0.6995   -0.2789 H   0  0  0  0  0  0  0  0  0  0  0  0
   -2.2652    0.8671   -1.9391 H   0  0  0  0  0  0  0  0  0  0  0  0
   -1.5707    2.1096   -0.7691 H   0  0  0  0  0  0  0  0  0  0  0  0
  3  4  2  0
  4  5  1  0
  5  6  2  0
  6  7  1  0
  7  8  2  0
  8  9  1  0
  9 10  1  0
 10 11  1  0
 11 12  1  0
 12 13  1  0
 13 14  1  0
  8  3  1  0
 14  9  1  0
  1 15  1  0
  2 16  1  0
  3 17  1  0
  4 18  1  0
  5 19  1  0
  7 20  1  0
  9 21  1  0
 10 22  1  0
 10 23  1  0
 11 24  1  0
 12 25  1  0
 12 26  1  0
 13 27  1  0
 13 28  1  0
M  END
>  <mol_id>  (25) 
Z3235143301

>  <drugclip_rank>  (25) 
33

>  <conformer>  (25) 
0

>  <align_rmsd>  (25) 
0.18

$$$$
Z2380440630
     RDKit          3D

 30 29  0  0  0  0  0  0  0  0999 V2000
    1.1141   -0.1809   -0.5464 Cl  0  0  0  0  0  0  0  0  0  0  0  0
    1.1141   -0.1809   -0.5464 Cl  0  0  0  0  0  0  0  0  0  0  0  0
    1.6316   -1.2863   -1.2962 C   0  0  0  0  0  0  0  0  0  0  0  0
    2.8018   -1.8851   -1.6425 N   0  0  0  0  0  0  0  0  0  0  0  0
    3.9815   -1.3587   -1.2576 C   0  0  0  0  0  0  0  0  0  0  0  0
    4.0690   -0.1980   -0.5004 C   0  0  0  0  0  0  0  0  0  0  0  0
    2.8807    0.4063   -0.1512 C   0  0  0  0  0  0  0  0  0  0  0  0
    1.6437   -0.1136   -0.5341 C   0  0  0  0  0  0  0  0  0  0  0  0
    0.3725    0.5509   -0.1487 C   0  0  0  0  0  0  0  0  0  0  0  0
   -0.5649    0.7636   -1.2891 C   0  0  0  0  0  0  0  0  0  0  0  0
   -1.8922    0.0614   -1.1376 C   0  0  0  0  0  0  0  0  0  0  0  0
   -2.5091    0.1709    0.2115 C   0  0  0  0  0  0  0  0  0  0  0  0
   -1.5491    0.2347    1.2881 N   0  0  0  0  0  0  0  0  0  0  0  0
   -0.3229   -0.3877    0.8414 C   0  0  0  0  0  0  0  0  0  0  0  0
   -0.2054    0.1552   -0.3124 H   0  0  0  0  0  0  0  0  0  0  0  0
   -0.2054    0.1552   -0.3124 H   0  0  0  0  0  0  0  0  0  0  0  0
    0.6759   -1.6935   -1.5956 H   0  0  0  0  0  0  0  0  0  0  0  0
    4.8795   -1.8890   -1.5693 H   0  0  0  0  0  0  0  0  0  0  0  0
    5.0352    0.2182   -0.1948 H   0  0  0  0  0  0  0  0  0  0  0  0
    2.9442    1.3127    0.4400 H   0  0  0  0  0  0  0  0  0  0  0  0
    0.6269    1.4425    0.4401 H   0  0  0  0  0  0  0  0  0  0  0  0
   -0.1462    0.4398   -2.2706 H   0  0  0  0  0  0  0  0  0  0  0  0
   -0.7559    1.8502   -1.3875 H   0  0  0  0  0  0  0  0  0  0  0  0
   -2.6010    0.5553   -1.8613 H   0  0  0  0  0  0  0  0  0  0  0  0
   -1.8111   -0.9900   -1.5119 H   0  0  0  0  0  0  0  0  0  0  0  0
   -3.1635   -0.7113    0.4091 H   0  0  0  0  0  0  0  0  0  0  0  0
   -3.1636    1.0646    0.3332 H   0  0  0  0  0  0  0  0  0  0  0  0
   -1.4102    1.1863    1.6678 H   0  0  0  0  0  0  0  0  0  0  0  0
    0.3585   -0.6581    1.6608 H   0  0  0  0  0  0  0  0  0  0  0  0
   -0.6086   -1.3313    0.3197 H   0  0  0  0  0  0  0  0  0  0  0  0
  3  4  2  0
  4  5  1  0
  5  6  2  0
  6  7  1  0
  7  8  2  0
  8  9  1  0
  9 10  1  0
 10 11  1  0
 11 12  1  0
 12 13  1  0
 13 14  1  0
  8  3  1  0
 14  9  1  0
  1 15  1  0
  2 16  1  0
  3 17  1  0
  5 18  1  0
  6 19  1  0
  7 20  1  0
  9 21  1  0
 10 22  1  0
 10 23  1  0
 11 24  1  0
 11 25  1  0
 12 26  1  0
 12 27  1  0
 13 28  1  0
 14 29  1  0
 14 30  1  0
M  END
>  <mol_id>  (26) 
Z2380440630

>  <drugclip_rank>  (26) 
34

>  <conformer>  (26) 
6

>  <align_rmsd>  (26) 
0.176

$$$$
MCULE-4609409020
     RDKit          3D

 29 30  0  0  0  0  0  0  0  0999 V2000
    0.8682   -0.5482   -0.4993 C   0  0  0  0  0  0  0  0  0  0  0  0
    1.8557    0.2485    0.0925 C   0  0  0  0  0  0  0  0  0  0  0  0
    3.2093   -0.0151   -0.1364 C   0  0  0  0  0  0  0  0  0  0  0  0
    3.5208   -1.0890   -0.9624 C   0  0  0  0  0  0  0  0  0  0  0  0
    2.6018   -1.8765   -1.5627 N   0  0  0  0  0  0  0  0  0  0  0  0
    1.3040   -1.5848   -1.3198 C   0  0  0  0  0  0  0  0  0  0  0  0
    4.2853    0.8105    0.5091 C   0  0  0  0  0  0  0  0  0  0  0  0
    4.6673    0.2719    1.8793 C   0  0  0  0  0  0  0  0  0  0  0  0
   -0.6023   -0.2932   -0.3152 C   0  0  0  0  0  0  0  0  0  0  0  0
   -1.1424    0.8016   -1.2402 C   0  0  0  0  0  0  0  0  0  0  0  0
   -2.1064    1.6119   -0.3801 C   0  0  0  0  0  0  0  0  0  0  0  0
   -2.2564    0.8071    0.8959 C   0  0  0  0  0  0  0  0  0  0  0  0
   -0.9514    0.1709    1.0353 N   0  0  0  0  0  0  0  0  0  0  0  0
    1.5640    1.0766    0.7360 H   0  0  0  0  0  0  0  0  0  0  0  0
    4.5528   -1.3561   -1.1736 H   0  0  0  0  0  0  0  0  0  0  0  0
    0.5976   -2.2374   -1.8264 H   0  0  0  0  0  0  0  0  0  0  0  0
    5.1707    0.8362   -0.1378 H   0  0  0  0  0  0  0  0  0  0  0  0
    3.9468    1.8498    0.6008 H   0  0  0  0  0  0  0  0  0  0  0  0
    5.0426   -0.7549    1.8120 H   0  0  0  0  0  0  0  0  0  0  0  0
    5.4524    0.8916    2.3240 H   0  0  0  0  0  0  0  0  0  0  0  0
    3.8091    0.2718    2.5599 H   0  0  0  0  0  0  0  0  0  0  0  0
   -1.1567   -1.2238   -0.5009 H   0  0  0  0  0  0  0  0  0  0  0  0
   -1.6678    0.3550   -2.0923 H   0  0  0  0  0  0  0  0  0  0  0  0
   -0.3611    1.4572   -1.6425 H   0  0  0  0  0  0  0  0  0  0  0  0
   -3.0657    1.7761   -0.8803 H   0  0  0  0  0  0  0  0  0  0  0  0
   -1.6676    2.5933   -0.1621 H   0  0  0  0  0  0  0  0  0  0  0  0
   -3.0438    0.0516    0.7904 H   0  0  0  0  0  0  0  0  0  0  0  0
   -2.4936    1.4399    1.7556 H   0  0  0  0  0  0  0  0  0  0  0  0
   -0.9896   -0.6166    1.6797 H   0  0  0  0  0  0  0  0  0  0  0  0
  1  2  2  0
  2  3  1  0
  3  4  2  0
  4  5  1  0
  5  6  2  0
  3  7  1  0
  7  8  1  0
  1  9  1  0
  9 10  1  0
 10 11  1  0
 11 12  1  0
 12 13  1  0
  6  1  1  0
 13  9  1  0
  2 14  1  0
  4 15  1  0
  6 16  1  0
  7 17  1  0
  7 18  1  0
  8 19  1  0
  8 20  1  0
  8 21  1  0
  9 22  1  0
 10 23  1  0
 10 24  1  0
 11 25  1  0
 11 26  1  0
 12 27  1  0
 12 28  1  0
 13 29  1  0
M  END
>  <mol_id>  (27) 
MCULE-4609409020

>  <drugclip_rank>  (27) 
35

>  <conformer>  (27) 
2

>  <align_rmsd>  (27) 
0.315

$$$$
MCULE-3270971174
     RDKit          3D

 29 30  0  0  0  0  0  0  0  0999 V2000
    0.8953   -0.5069    1.3333 C   0  0  0  0  0  0  0  0  0  0  0  0
    1.5625   -0.3381    2.7138 C   0  0  0  0  0  0  0  0  0  0  0  0
    0.6629    0.6244    3.4723 C   0  0  0  0  0  0  0  0  0  0  0  0
    0.2073    1.5842    2.3869 C   0  0  0  0  0  0  0  0  0  0  0  0
   -0.1060    0.6803    1.1826 C   0  0  0  0  0  0  0  0  0  0  0  0
   -1.5087    0.2312    1.2716 N   0  0  0  0  0  0  0  0  0  0  0  0
   -1.9539   -0.3964    0.0305 C   0  0  0  0  0  0  0  0  0  0  0  0
    1.8916   -0.5931    0.1997 C   0  0  0  0  0  0  0  0  0  0  0  0
    1.9484   -1.7318   -0.6011 C   0  0  0  0  0  0  0  0  0  0  0  0
    2.7964   -1.8936   -1.6427 N   0  0  0  0  0  0  0  0  0  0  0  0
    3.6370   -0.8717   -1.9037 C   0  0  0  0  0  0  0  0  0  0  0  0
    3.6665    0.3038   -1.1741 C   0  0  0  0  0  0  0  0  0  0  0  0
    2.7799    0.4426   -0.1097 C   0  0  0  0  0  0  0  0  0  0  0  0
    0.3368   -1.4525    1.3673 H   0  0  0  0  0  0  0  0  0  0  0  0
    2.5704    0.0865    2.6373 H   0  0  0  0  0  0  0  0  0  0  0  0
    1.6581   -1.2961    3.2361 H   0  0  0  0  0  0  0  0  0  0  0  0
   -0.1921    0.0917    3.9041 H   0  0  0  0  0  0  0  0  0  0  0  0
    1.1934    1.1340    4.2817 H   0  0  0  0  0  0  0  0  0  0  0  0
    1.0250    2.2692    2.1295 H   0  0  0  0  0  0  0  0  0  0  0  0
   -0.6396    2.1993    2.7084 H   0  0  0  0  0  0  0  0  0  0  0  0
    0.0321    1.2553    0.2588 H   0  0  0  0  0  0  0  0  0  0  0  0
   -2.1080    1.0373    1.4518 H   0  0  0  0  0  0  0  0  0  0  0  0
   -1.3803   -1.2986   -0.2006 H   0  0  0  0  0  0  0  0  0  0  0  0
   -3.0014   -0.6961    0.1348 H   0  0  0  0  0  0  0  0  0  0  0  0
   -1.8870    0.2965   -0.8146 H   0  0  0  0  0  0  0  0  0  0  0  0
    1.2895   -2.5788   -0.4255 H   0  0  0  0  0  0  0  0  0  0  0  0
    4.3088   -1.0275   -2.7427 H   0  0  0  0  0  0  0  0  0  0  0  0
    4.3640    1.0939   -1.4278 H   0  0  0  0  0  0  0  0  0  0  0  0
    2.7910    1.3600    0.4727 H   0  0  0  0  0  0  0  0  0  0  0  0
  1  2  1  0
  2  3  1  0
  3  4  1  0
  4  5  1  0
  5  6  1  0
  6  7  1  0
  1  8  1  0
  8  9  2  0
  9 10  1  0
 10 11  2  0
 11 12  1  0
 12 13  2  0
  5  1  1  0
 13  8  1  0
  1 14  1  0
  2 15  1  0
  2 16  1  0
  3 17  1  0
  3 18  1  0
  4 19  1  0
  4 20  1  0
  5 21  1  0
  6 22  1  0
  7 23  1  0
  7 24  1  0
  7 25  1  0
  9 26  1  0
 11 27  1  0
 12 28  1  0
 13 29  1  0
M  END
>  <mol_id>  (28) 
MCULE-3270971174

>  <drugclip_rank>  (28) 
36

>  <conformer>  (28) 
0

>  <align_rmsd>  (28) 
0.145

$$$$
MCULE-8195682194
     RDKit          3D

 33 34  0  0  0  0  0  0  0  0999 V2000
    1.2608   -0.7990    0.1866 C   0  0  0  0  0  0  0  0  0  0  0  0
    2.0763    0.3511    0.1030 C   0  0  0  0  0  0  0  0  0  0  0  0
    1.8398    1.5734    0.9484 C   0  0  0  0  0  0  0  0  0  0  0  0
    3.1221    0.3772   -0.8303 C   0  0  0  0  0  0  0  0  0  0  0  0
    3.3466   -0.7336   -1.6240 C   0  0  0  0  0  0  0  0  0  0  0  0
    2.6095   -1.8567   -1.5560 N   0  0  0  0  0  0  0  0  0  0  0  0
    1.5951   -1.8596   -0.6590 C   0  0  0  0  0  0  0  0  0  0  0  0
    4.3950   -0.6450   -2.5184 O   0  0  0  0  0  0  0  0  0  0  0  0
    4.5604   -1.8240   -3.2988 C   0  0  0  0  0  0  0  0  0  0  0  0
    0.1072   -0.8954    1.1665 C   0  0  0  0  0  0  0  0  0  0  0  0
   -0.6643   -2.2162    1.2744 C   0  0  0  0  0  0  0  0  0  0  0  0
   -1.9485   -1.8400    2.0030 C   0  0  0  0  0  0  0  0  0  0  0  0
   -2.0115   -0.3178    1.9495 C   0  0  0  0  0  0  0  0  0  0  0  0
   -0.9683    0.1170    1.0059 N   0  0  0  0  0  0  0  0  0  0  0  0
   -1.5065    0.1950   -0.3560 C   0  0  0  0  0  0  0  0  0  0  0  0
    1.6580    1.3038    1.9929 H   0  0  0  0  0  0  0  0  0  0  0  0
    0.9910    2.1446    0.5609 H   0  0  0  0  0  0  0  0  0  0  0  0
    2.7163    2.2310    0.9446 H   0  0  0  0  0  0  0  0  0  0  0  0
    3.7581    1.2493   -0.9402 H   0  0  0  0  0  0  0  0  0  0  0  0
    1.0431   -2.7945   -0.6527 H   0  0  0  0  0  0  0  0  0  0  0  0
    3.6766   -2.0197   -3.9160 H   0  0  0  0  0  0  0  0  0  0  0  0
    5.4063   -1.6604   -3.9736 H   0  0  0  0  0  0  0  0  0  0  0  0
    4.8007   -2.6874   -2.6687 H   0  0  0  0  0  0  0  0  0  0  0  0
    0.5597   -0.7315    2.1567 H   0  0  0  0  0  0  0  0  0  0  0  0
   -0.9260   -2.6304    0.2938 H   0  0  0  0  0  0  0  0  0  0  0  0
   -0.0993   -2.9815    1.8172 H   0  0  0  0  0  0  0  0  0  0  0  0
   -1.9282   -2.1897    3.0408 H   0  0  0  0  0  0  0  0  0  0  0  0
   -2.8135   -2.2951    1.5086 H   0  0  0  0  0  0  0  0  0  0  0  0
   -1.7742    0.0898    2.9402 H   0  0  0  0  0  0  0  0  0  0  0  0
   -3.0127    0.0488    1.6958 H   0  0  0  0  0  0  0  0  0  0  0  0
   -0.7471    0.5447   -1.0626 H   0  0  0  0  0  0  0  0  0  0  0  0
   -1.9069   -0.7564   -0.7219 H   0  0  0  0  0  0  0  0  0  0  0  0
   -2.3141    0.9353   -0.3947 H   0  0  0  0  0  0  0  0  0  0  0  0
  1  2  2  0
  2  3  1  0
  2  4  1  0
  4  5  2  0
  5  6  1  0
  6  7  2  0
  5  8  1  0
  8  9  1  0
  1 10  1  0
 10 11  1  0
 11 12  1  0
 12 13  1  0
 13 14  1  0
 14 15  1  0
  7  1  1  0
 14 10  1  0
  3 16  1  0
  3 17  1  0
  3 18  1  0
  4 19  1  0
  7 20  1  0
  9 21  1  0
  9 22  1  0
  9 23  1  0
 10 24  1  0
 11 25  1  0
 11 26  1  0
 12 27  1  0
 12 28  1  0
 13 29  1  0
 13 30  1  0
 15 31  1  0
 15 32  1  0
 15 33  1  0
M  END
>  <mol_id>  (29) 
MCULE-8195682194

>  <drugclip_rank>  (29) 
38

>  <conformer>  (29) 
8

>  <align_rmsd>  (29) 
0.266

$$$$
Z1209979984
     RDKit          3D

 29 30  0  0  0  0  0  0  0  0999 V2000
    1.9423   -1.0590   -1.2619 C   0  0  0  0  0  0  0  0  0  0  0  0
    2.9192   -1.8925   -1.6865 N   0  0  0  0  0  0  0  0  0  0  0  0
    4.1892   -1.5194   -1.4233 C   0  0  0  0  0  0  0  0  0  0  0  0
    4.5269   -0.3543   -0.7556 C   0  0  0  0  0  0  0  0  0  0  0  0
    3.5001    0.4821   -0.3281 C   0  0  0  0  0  0  0  0  0  0  0  0
    2.1710    0.1315   -0.5779 C   0  0  0  0  0  0  0  0  0  0  0  0
    1.0272    1.0024   -0.1290 C   0  0  0  0  0  0  0  0  0  0  0  0
    0.8419    1.0577    1.4058 C   0  0  0  0  0  0  0  0  0  0  0  0
    0.5137   -0.3104    2.0236 C   0  0  0  0  0  0  0  0  0  0  0  0
   -0.8650   -0.8280    1.5988 C   0  0  0  0  0  0  0  0  0  0  0  0
   -1.8582    0.2296    1.3939 N   0  0  0  0  0  0  0  0  0  0  0  0
   -1.5823    1.4071    2.2053 C   0  0  0  0  0  0  0  0  0  0  0  0
   -0.2681    2.0687    1.7761 C   0  0  0  0  0  0  0  0  0  0  0  0
    0.9334   -1.3909   -1.4939 H   0  0  0  0  0  0  0  0  0  0  0  0
    4.9548   -2.2040   -1.7763 H   0  0  0  0  0  0  0  0  0  0  0  0
    5.5655   -0.1031   -0.5734 H   0  0  0  0  0  0  0  0  0  0  0  0
    3.7401    1.4037    0.1956 H   0  0  0  0  0  0  0  0  0  0  0  0
    1.2190    2.0154   -0.5086 H   0  0  0  0  0  0  0  0  0  0  0  0
    0.1003    0.6805   -0.6192 H   0  0  0  0  0  0  0  0  0  0  0  0
    1.7815    1.4156    1.8473 H   0  0  0  0  0  0  0  0  0  0  0  0
    1.2807   -1.0545    1.7828 H   0  0  0  0  0  0  0  0  0  0  0  0
    0.5314   -0.2068    3.1172 H   0  0  0  0  0  0  0  0  0  0  0  0
   -0.7781   -1.3958    0.6661 H   0  0  0  0  0  0  0  0  0  0  0  0
   -1.2254   -1.5303    2.3600 H   0  0  0  0  0  0  0  0  0  0  0  0
   -2.7885   -0.1335    1.5996 H   0  0  0  0  0  0  0  0  0  0  0  0
   -2.3977    2.1299    2.0903 H   0  0  0  0  0  0  0  0  0  0  0  0
   -1.5525    1.1399    3.2690 H   0  0  0  0  0  0  0  0  0  0  0  0
    0.0822    2.6949    2.6065 H   0  0  0  0  0  0  0  0  0  0  0  0
   -0.4561    2.7540    0.9402 H   0  0  0  0  0  0  0  0  0  0  0  0
  1  2  2  0
  2  3  1  0
  3  4  2  0
  4  5  1  0
  5  6  2  0
  6  7  1  0
  7  8  1  0
  8  9  1  0
  9 10  1  0
 10 11  1  0
 11 12  1  0
 12 13  1  0
  6  1  1  0
 13  8  1  0
  1 14  1  0
  3 15  1  0
  4 16  1  0
  5 17  1  0
  7 18  1  0
  7 19  1  0
  8 20  1  0
  9 21  1  0
  9 22  1  0
 10 23  1  0
 10 24  1  0
 11 25  1  0
 12 26  1  0
 12 27  1  0
 13 28  1  0
 13 29  1  0
M  END
>  <mol_id>  (30) 
Z1209979984

>  <drugclip_rank>  (30) 
39

>  <conformer>  (30) 
2

>  <align_rmsd>  (30) 
0.446

$$$$
MCULE-1517104178
     RDKit          3D

 27 28  0  0  0  0  0  0  0  0999 V2000
    0.2170    0.8419   -0.7789 C   0  0  0  0  0  0  0  0  0  0  0  0
   -1.0292    0.0856   -0.2517 C   0  0  0  0  0  0  0  0  0  0  0  0
   -2.1288    0.7557   -1.0606 C   0  0  0  0  0  0  0  0  0  0  0  0
   -1.4609    0.9501   -2.4011 C   0  0  0  0  0  0  0  0  0  0  0  0
   -0.0883    1.2541   -2.1324 O   0  0  0  0  0  0  0  0  0  0  0  0
   -1.3425    0.1827    1.1811 N   0  0  0  0  0  0  0  0  0  0  0  0
   -0.3853   -0.5385    2.0100 C   0  0  0  0  0  0  0  0  0  0  0  0
    1.4936    0.0435   -0.7995 C   0  0  0  0  0  0  0  0  0  0  0  0
    1.6294   -1.1037   -1.5763 C   0  0  0  0  0  0  0  0  0  0  0  0
    2.7403   -1.8762   -1.6146 N   0  0  0  0  0  0  0  0  0  0  0  0
    3.7836   -1.4725   -0.8606 C   0  0  0  0  0  0  0  0  0  0  0  0
    3.7649   -0.3386   -0.0669 C   0  0  0  0  0  0  0  0  0  0  0  0
    2.6029    0.4277   -0.0389 C   0  0  0  0  0  0  0  0  0  0  0  0
    0.3600    1.7693   -0.2094 H   0  0  0  0  0  0  0  0  0  0  0  0
   -0.9980   -0.9727   -0.5446 H   0  0  0  0  0  0  0  0  0  0  0  0
   -2.3830    1.7347   -0.6339 H   0  0  0  0  0  0  0  0  0  0  0  0
   -3.0468    0.1643   -1.1281 H   0  0  0  0  0  0  0  0  0  0  0  0
   -1.4931    0.0324   -2.9985 H   0  0  0  0  0  0  0  0  0  0  0  0
   -1.9107    1.7599   -2.9821 H   0  0  0  0  0  0  0  0  0  0  0  0
   -2.2717   -0.2067    1.3453 H   0  0  0  0  0  0  0  0  0  0  0  0
   -0.7333   -0.5334    3.0480 H   0  0  0  0  0  0  0  0  0  0  0  0
    0.5945   -0.0554    2.0028 H   0  0  0  0  0  0  0  0  0  0  0  0
   -0.2821   -1.5828    1.6985 H   0  0  0  0  0  0  0  0  0  0  0  0
    0.8224   -1.4474   -2.2180 H   0  0  0  0  0  0  0  0  0  0  0  0
    4.6661   -2.1031   -0.9154 H   0  0  0  0  0  0  0  0  0  0  0  0
    4.6349   -0.0566    0.5149 H   0  0  0  0  0  0  0  0  0  0  0  0
    2.5668    1.3228    0.5774 H   0  0  0  0  0  0  0  0  0  0  0  0
  1  2  1  0
  2  3  1  0
  3  4  1  0
  4  5  1  0
  2  6  1  0
  6  7  1  0
  1  8  1  0
  8  9  2  0
  9 10  1  0
 10 11  2  0
 11 12  1  0
 12 13  2  0
  5  1  1  0
 13  8  1  0
  1 14  1  0
  2 15  1  0
  3 16  1  0
  3 17  1  0
  4 18  1  0
  4 19  1  0
  6 20  1  0
  7 21  1  0
  7 22  1  0
  7 23  1  0
  9 24  1  0
 11 25  1  0
 12 26  1  0
 13 27  1  0
M  END
>  <mol_id>  (31) 
MCULE-1517104178

>  <drugclip_rank>  (31) 
40

>  <conformer>  (31) 
5

>  <align_rmsd>  (31) 
0.027

$$$$
Z9478993253
     RDKit          3D

 27 28  0  0  0  0  0  0  0  0999 V2000
   -2.9910   -0.1726    0.9700 C   0  0  0  0  0  0  0  0  0  0  0  0
   -1.6492    0.2669    1.3447 N   0  0  0  0  0  0  0  0  0  0  0  0
   -1.3990    0.0372    2.7739 C   0  0  0  0  0  0  0  0  0  0  0  0
   -0.0411    0.6232    3.1940 C   0  0  0  0  0  0  0  0  0  0  0  0
    1.0577    0.3384    2.2082 C   0  0  0  0  0  0  0  0  0  0  0  0
    0.7936   -0.1469    0.9793 C   0  0  0  0  0  0  0  0  0  0  0  0
   -0.6312   -0.4235    0.5299 C   0  0  0  0  0  0  0  0  0  0  0  0
    1.8836   -0.4354    0.0246 C   0  0  0  0  0  0  0  0  0  0  0  0
    2.9500    0.4515   -0.1634 C   0  0  0  0  0  0  0  0  0  0  0  0
    3.9495    0.1549   -1.0887 C   0  0  0  0  0  0  0  0  0  0  0  0
    3.8514   -1.0229   -1.8066 C   0  0  0  0  0  0  0  0  0  0  0  0
    4.8102   -1.3093   -2.6985 F   0  0  0  0  0  0  0  0  0  0  0  0
    2.8441   -1.9064   -1.6681 N   0  0  0  0  0  0  0  0  0  0  0  0
    1.8890   -1.5903   -0.7601 C   0  0  0  0  0  0  0  0  0  0  0  0
   -3.1798    0.0285   -0.0903 H   0  0  0  0  0  0  0  0  0  0  0  0
   -3.7482    0.3827    1.5346 H   0  0  0  0  0  0  0  0  0  0  0  0
   -3.1436   -1.2428    1.1509 H   0  0  0  0  0  0  0  0  0  0  0  0
   -1.4263   -1.0367    3.0042 H   0  0  0  0  0  0  0  0  0  0  0  0
   -2.1783    0.5156    3.3799 H   0  0  0  0  0  0  0  0  0  0  0  0
    0.2355    0.2144    4.1725 H   0  0  0  0  0  0  0  0  0  0  0  0
   -0.1255    1.7109    3.3074 H   0  0  0  0  0  0  0  0  0  0  0  0
    2.0719    0.5387    2.5404 H   0  0  0  0  0  0  0  0  0  0  0  0
   -0.7995   -1.5087    0.5509 H   0  0  0  0  0  0  0  0  0  0  0  0
   -0.7472   -0.0870   -0.5084 H   0  0  0  0  0  0  0  0  0  0  0  0
    3.0029    1.3840    0.3932 H   0  0  0  0  0  0  0  0  0  0  0  0
    4.7839    0.8250   -1.2552 H   0  0  0  0  0  0  0  0  0  0  0  0
    1.1036   -2.3366   -0.6744 H   0  0  0  0  0  0  0  0  0  0  0  0
  1  2  1  0
  2  3  1  0
  3  4  1  0
  4  5  1  0
  5  6  2  0
  6  7  1  0
  6  8  1  0
  8  9  2  0
  9 10  1  0
 10 11  2  0
 11 12  1  0
 11 13  1  0
 13 14  2  0
  7  2  1  0
 14  8  1  0
  1 15  1  0
  1 16  1  0
  1 17  1  0
  3 18  1  0
  3 19  1  0
  4 20  1  0
  4 21  1  0
  5 22  1  0
  7 23  1  0
  7 24  1  0
  9 25  1  0
 10 26  1  0
 14 27  1  0
M  END
>  <mol_id>  (32) 
Z9478993253

>  <drugclip_rank>  (32) 
41

>  <conformer>  (32) 
0

>  <align_rmsd>  (32) 
0.248

$$$$
Z3243815051
     RDKit          3D

 30 29  0  0  0  0  0  0  0  0999 V2000
    1.4651   -0.0269    0.1500 Cl  0  0  0  0  0  0  0  0  0  0  0  0
    1.4651   -0.0269    0.1500 Cl  0  0  0  0  0  0  0  0  0  0  0  0
    1.7808   -1.5289   -1.0306 C   0  0  0  0  0  0  0  0  0  0  0  0
    2.8799   -1.9228   -1.6918 N   0  0  0  0  0  0  0  0  0  0  0  0
    4.0023   -1.1627   -1.6036 C   0  0  0  0  0  0  0  0  0  0  0  0
    4.0495   -0.0010   -0.8579 C   0  0  0  0  0  0  0  0  0  0  0  0
    2.9029    0.3804   -0.1875 C   0  0  0  0  0  0  0  0  0  0  0  0
    1.7437   -0.3714   -0.2568 C   0  0  0  0  0  0  0  0  0  0  0  0
    0.5340    0.0273    0.4480 C   0  0  0  0  0  0  0  0  0  0  0  0
    0.6164    0.0938    1.9363 C   0  0  0  0  0  0  0  0  0  0  0  0
   -0.7657    0.2674    2.5011 C   0  0  0  0  0  0  0  0  0  0  0  0
   -1.7492    0.3387    1.4271 N   0  0  0  0  0  0  0  0  0  0  0  0
   -1.4861    1.4072    0.5079 C   0  0  0  0  0  0  0  0  0  0  0  0
   -0.0746    1.3150   -0.0203 C   0  0  0  0  0  0  0  0  0  0  0  0
    0.2352    0.3723    0.6403 H   0  0  0  0  0  0  0  0  0  0  0  0
    0.2352    0.3723    0.6403 H   0  0  0  0  0  0  0  0  0  0  0  0
    0.8702   -2.1286   -1.0910 H   0  0  0  0  0  0  0  0  0  0  0  0
    4.9050   -1.4769   -2.1405 H   0  0  0  0  0  0  0  0  0  0  0  0
    4.9324    0.5943   -0.7902 H   0  0  0  0  0  0  0  0  0  0  0  0
    2.9587    1.2887    0.3886 H   0  0  0  0  0  0  0  0  0  0  0  0
   -0.2512   -0.7541    0.2223 H   0  0  0  0  0  0  0  0  0  0  0  0
    1.2686    0.9509    2.2769 H   0  0  0  0  0  0  0  0  0  0  0  0
    1.0253   -0.8722    2.3425 H   0  0  0  0  0  0  0  0  0  0  0  0
   -0.8050    1.1577    3.1736 H   0  0  0  0  0  0  0  0  0  0  0  0
   -1.0869   -0.6076    3.1333 H   0  0  0  0  0  0  0  0  0  0  0  0
   -2.7091    0.3065    1.7617 H   0  0  0  0  0  0  0  0  0  0  0  0
   -2.2284    1.3276   -0.3052 H   0  0  0  0  0  0  0  0  0  0  0  0
   -1.6273    2.4118    0.9786 H   0  0  0  0  0  0  0  0  0  0  0  0
    0.5511    2.2007    0.2944 H   0  0  0  0  0  0  0  0  0  0  0  0
   -0.1340    1.2481   -1.1425 H   0  0  0  0  0  0  0  0  0  0  0  0
  3  4  2  0
  4  5  1  0
  5  6  2  0
  6  7  1  0
  7  8  2  0
  8  9  1  0
  9 10  1  0
 10 11  1  0
 11 12  1  0
 12 13  1  0
 13 14  1  0
  8  3  1  0
 14  9  1  0
  1 15  1  0
  2 16  1  0
  3 17  1  0
  5 18  1  0
  6 19  1  0
  7 20  1  0
  9 21  1  0
 10 22  1  0
 10 23  1  0
 11 24  1  0
 11 25  1  0
 12 26  1  0
 13 27  1  0
 13 28  1  0
 14 29  1  0
 14 30  1  0
M  END
>  <mol_id>  (33) 
Z3243815051

>  <drugclip_rank>  (33) 
42

>  <conformer>  (33) 
3

>  <align_rmsd>  (33) 
0.317

$$$$
Z2298167235
     RDKit          3D

 31 32  0  0  0  0  0  0  0  0999 V2000
    3.7024   -0.9350    2.8728 C   0  0  0  0  0  0  0  0  0  0  0  0
    2.5153   -1.7947    2.8466 N   0  0  0  0  0  0  0  0  0  0  0  0
    1.8701   -1.8293    4.1650 C   0  0  0  0  0  0  0  0  0  0  0  0
    0.9716   -0.6038    4.2238 C   0  0  0  0  0  0  0  0  0  0  0  0
    0.6863   -0.2306    2.7586 C   0  0  2  0  0  0  0  0  0  0  0  0
   -0.8256   -0.1850    2.4961 C   0  0  0  0  0  0  0  0  0  0  0  0
   -1.1524    0.2176    1.1369 N   0  0  0  0  0  0  0  0  0  0  0  0
    1.4374   -1.3086    1.9385 C   0  0  1  0  0  0  0  0  0  0  0  0
    1.9171   -0.9863    0.5390 C   0  0  0  0  0  0  0  0  0  0  0  0
    2.1117    0.3057    0.0414 C   0  0  0  0  0  0  0  0  0  0  0  0
    2.5697    0.4912   -1.2621 C   0  0  0  0  0  0  0  0  0  0  0  0
    2.8296   -0.6266   -2.0355 C   0  0  0  0  0  0  0  0  0  0  0  0
    2.6704   -1.8908   -1.5981 N   0  0  0  0  0  0  0  0  0  0  0  0
    2.2237   -2.0378   -0.3274 C   0  0  0  0  0  0  0  0  0  0  0  0
    4.4129   -1.2981    3.6246 H   0  0  0  0  0  0  0  0  0  0  0  0
    3.4765    0.1122    3.1012 H   0  0  0  0  0  0  0  0  0  0  0  0
    4.2367   -0.9742    1.9179 H   0  0  0  0  0  0  0  0  0  0  0  0
    1.2567   -2.7368    4.2304 H   0  0  0  0  0  0  0  0  0  0  0  0
    2.5785   -1.8699    4.9998 H   0  0  0  0  0  0  0  0  0  0  0  0
    0.0654   -0.8094    4.8034 H   0  0  0  0  0  0  0  0  0  0  0  0
    1.4946    0.2258    4.7149 H   0  0  0  0  0  0  0  0  0  0  0  0
    1.1044    0.7695    2.5937 H   0  0  0  0  0  0  0  0  0  0  0  0
   -1.2964    0.5196    3.1916 H   0  0  0  0  0  0  0  0  0  0  0  0
   -1.2706   -1.1682    2.6883 H   0  0  0  0  0  0  0  0  0  0  0  0
   -0.8233    1.1651    0.9587 H   0  0  0  0  0  0  0  0  0  0  0  0
   -2.1648    0.2401    1.0173 H   0  0  0  0  0  0  0  0  0  0  0  0
    0.7416   -2.1542    1.8193 H   0  0  0  0  0  0  0  0  0  0  0  0
    1.9156    1.1809    0.6504 H   0  0  0  0  0  0  0  0  0  0  0  0
    2.7208    1.4863   -1.6642 H   0  0  0  0  0  0  0  0  0  0  0  0
    3.1862   -0.5312   -3.0566 H   0  0  0  0  0  0  0  0  0  0  0  0
    2.1198   -3.0711   -0.0039 H   0  0  0  0  0  0  0  0  0  0  0  0
  1  2  1  0
  2  3  1  0
  3  4  1  0
  4  5  1  0
  5  6  1  0
  6  7  1  0
  5  8  1  0
  8  9  1  0
  9 10  2  0
 10 11  1  0
 11 12  2  0
 12 13  1  0
 13 14  2  0
  8  2  1  0
 14  9  1  0
  1 15  1  0
  1 16  1  0
  1 17  1  0
  3 18  1  0
  3 19  1  0
  4 20  1  0
  4 21  1  0
  5 22  1  6
  6 23  1  0
  6 24  1  0
  7 25  1  0
  7 26  1  0
  8 27  1  6
 10 28  1  0
 11 29  1  0
 12 30  1  0
 14 31  1  0
M  END
>  <mol_id>  (34) 
Z2298167235

>  <drugclip_rank>  (34) 
43

>  <conformer>  (34) 
20

>  <align_rmsd>  (34) 
0.181

$$$$
MCULE-2253838370
     RDKit          3D

 26 27  0  0  0  0  0  0  0  0999 V2000
   -1.6190    0.2190    1.3025 N   0  0  0  0  0  0  0  0  0  0  0  0
   -2.1829    1.0675    0.2347 C   0  0  0  0  0  0  0  0  0  0  0  0
   -0.9411    0.7643   -0.6332 C   0  0  0  0  0  0  0  0  0  0  0  0
   -0.7775   -0.4624    0.2956 C   0  0  0  0  0  0  0  0  0  0  0  0
    0.1431    1.8459   -0.6029 C   0  0  0  0  0  0  0  0  0  0  0  0
    1.2660    1.5603   -1.6063 C   0  0  0  0  0  0  0  0  0  0  0  0
    2.1432    0.3971   -1.2372 C   0  0  0  0  0  0  0  0  0  0  0  0
    3.0453    0.4729   -0.1728 C   0  0  0  0  0  0  0  0  0  0  0  0
    3.8325   -0.6299    0.1449 C   0  0  0  0  0  0  0  0  0  0  0  0
    3.6920   -1.7775   -0.6169 C   0  0  0  0  0  0  0  0  0  0  0  0
    2.8354   -1.8892   -1.6539 N   0  0  0  0  0  0  0  0  0  0  0  0
    2.0850   -0.8023   -1.9413 C   0  0  0  0  0  0  0  0  0  0  0  0
   -1.0727    0.7429    1.9864 H   0  0  0  0  0  0  0  0  0  0  0  0
   -3.1212    0.6760   -0.1763 H   0  0  0  0  0  0  0  0  0  0  0  0
   -2.3405    2.1131    0.5159 H   0  0  0  0  0  0  0  0  0  0  0  0
   -1.2128    0.5065   -1.6650 H   0  0  0  0  0  0  0  0  0  0  0  0
   -1.2312   -1.3807   -0.0958 H   0  0  0  0  0  0  0  0  0  0  0  0
    0.2313   -0.6981    0.6427 H   0  0  0  0  0  0  0  0  0  0  0  0
    0.5434    1.9765    0.4096 H   0  0  0  0  0  0  0  0  0  0  0  0
   -0.3140    2.8026   -0.8861 H   0  0  0  0  0  0  0  0  0  0  0  0
    0.8403    1.4051   -2.6059 H   0  0  0  0  0  0  0  0  0  0  0  0
    1.9031    2.4504   -1.6896 H   0  0  0  0  0  0  0  0  0  0  0  0
    3.1382    1.3852    0.4107 H   0  0  0  0  0  0  0  0  0  0  0  0
    4.5384   -0.5956    0.9668 H   0  0  0  0  0  0  0  0  0  0  0  0
    4.2832   -2.6642   -0.4075 H   0  0  0  0  0  0  0  0  0  0  0  0
    1.4079   -0.9324   -2.7815 H   0  0  0  0  0  0  0  0  0  0  0  0
  1  2  1  0
  2  3  1  0
  3  4  1  0
  3  5  1  0
  5  6  1  0
  6  7  1  0
  7  8  2  0
  8  9  1  0
  9 10  2  0
 10 11  1  0
 11 12  2  0
  4  1  1  0
 12  7  1  0
  1 13  1  0
  2 14  1  0
  2 15  1  0
  3 16  1  0
  4 17  1  0
  4 18  1  0
  5 19  1  0
  5 20  1  0
  6 21  1  0
  6 22  1  0
  8 23  1  0
  9 24  1  0
 10 25  1  0
 12 26  1  0
M  END
>  <mol_id>  (35) 
MCULE-2253838370

>  <drugclip_rank>  (35) 
44

>  <conformer>  (35) 
12

>  <align_rmsd>  (35) 
0.242

$$$$
Z1993626917
     RDKit          3D

 29 31  0  0  0  0  0  0  0  0999 V2000
    3.0875    1.3078    0.4359 C   0  0  0  0  0  0  0  0  0  0  0  0
    3.2502    0.1732   -0.4418 N   0  0  0  0  0  0  0  0  0  0  0  0
    4.4272   -0.1797   -1.0479 C   0  0  0  0  0  0  0  0  0  0  0  0
    4.1482   -1.3434   -1.7202 C   0  0  0  0  0  0  0  0  0  0  0  0
    2.8397   -1.7036   -1.5409 N   0  0  0  0  0  0  0  0  0  0  0  0
    2.2983   -0.7632   -0.7903 C   0  0  0  0  0  0  0  0  0  0  0  0
    0.9616   -0.6859   -0.3047 C   0  0  0  0  0  0  0  0  0  0  0  0
    0.1734    0.3237   -0.7367 C   0  0  0  0  0  0  0  0  0  0  0  0
   -1.2749    0.4314   -0.3252 C   0  0  0  0  0  0  0  0  0  0  0  0
    0.3417   -1.7578    0.5832 C   0  0  0  0  0  0  0  0  0  0  0  0
   -1.1841   -1.5784    0.7744 C   0  0  0  0  0  0  0  0  0  0  0  0
   -1.4809   -0.1534    1.0094 N   0  0  0  0  0  0  0  0  0  0  0  0
   -1.9827   -1.8617   -0.5056 C   0  0  0  0  0  0  0  0  0  0  0  0
   -2.1355   -0.4940   -1.1805 C   0  0  0  0  0  0  0  0  0  0  0  0
    2.5365    2.0844   -0.0997 H   0  0  0  0  0  0  0  0  0  0  0  0
    2.5496    0.9937    1.3338 H   0  0  0  0  0  0  0  0  0  0  0  0
    4.0721    1.6872    0.7230 H   0  0  0  0  0  0  0  0  0  0  0  0
    5.3352    0.3974   -0.9465 H   0  0  0  0  0  0  0  0  0  0  0  0
    4.8200   -1.9451   -2.3182 H   0  0  0  0  0  0  0  0  0  0  0  0
    0.5346    1.0588   -1.4513 H   0  0  0  0  0  0  0  0  0  0  0  0
   -1.6109    1.4717   -0.3595 H   0  0  0  0  0  0  0  0  0  0  0  0
    0.5454   -2.7511    0.1656 H   0  0  0  0  0  0  0  0  0  0  0  0
    0.8322   -1.7071    1.5640 H   0  0  0  0  0  0  0  0  0  0  0  0
   -1.5324   -2.2052    1.6015 H   0  0  0  0  0  0  0  0  0  0  0  0
   -0.8188    0.2482    1.6700 H   0  0  0  0  0  0  0  0  0  0  0  0
   -2.9754   -2.2601   -0.2646 H   0  0  0  0  0  0  0  0  0  0  0  0
   -1.4825   -2.5822   -1.1613 H   0  0  0  0  0  0  0  0  0  0  0  0
   -3.1873   -0.1837   -1.1455 H   0  0  0  0  0  0  0  0  0  0  0  0
   -1.8308   -0.5251   -2.2323 H   0  0  0  0  0  0  0  0  0  0  0  0
  1  2  1  0
  2  3  1  0
  3  4  2  0
  4  5  1  0
  5  6  2  0
  6  7  1  0
  7  8  2  0
  8  9  1  0
  7 10  1  0
 10 11  1  0
 11 12  1  0
 11 13  1  0
 13 14  1  0
  6  2  1  0
 14  9  1  0
 12  9  1  0
  1 15  1  0
  1 16  1  0
  1 17  1  0
  3 18  1  0
  4 19  1  0
  8 20  1  0
  9 21  1  0
 10 22  1  0
 10 23  1  0
 11 24  1  0
 12 25  1  0
 13 26  1  0
 13 27  1  0
 14 28  1  0
 14 29  1  0
M  END
>  <mol_id>  (36) 
Z1993626917

>  <drugclip_rank>  (36) 
45

>  <conformer>  (36) 
3

>  <align_rmsd>  (36) 
0.612

$$$$
MCULE-9140680577
     RDKit          3D

 29 30  0  0  0  0  0  0  0  0999 V2000
    3.1801    0.0249   -0.4381 N   0  0  0  0  0  0  0  0  0  0  0  0
    3.6640   -0.9825   -1.2360 C   0  0  0  0  0  0  0  0  0  0  0  0
    2.7019   -1.8202   -1.5638 N   0  0  0  0  0  0  0  0  0  0  0  0
    1.5684   -1.3332   -0.9653 C   0  0  0  0  0  0  0  0  0  0  0  0
    1.8382   -0.1855   -0.2493 C   0  0  0  0  0  0  0  0  0  0  0  0
    0.9795    0.7144    0.5748 C   0  0  0  0  0  0  0  0  0  0  0  0
    0.1094   -0.0307    1.6045 C   0  0  0  0  0  0  0  0  0  0  0  0
   -1.2738    0.1897    1.1614 N   0  0  0  0  0  0  0  0  0  0  0  0
   -2.2387    0.0475    2.2404 C   0  0  0  0  0  0  0  0  0  0  0  0
   -1.2874    1.5218    0.5616 C   0  0  0  0  0  0  0  0  0  0  0  0
   -0.0203    1.5043   -0.2768 C   0  0  0  0  0  0  0  0  0  0  0  0
    5.0971   -1.0465   -1.6365 C   0  0  0  0  0  0  0  0  0  0  0  0
    5.9771   -0.7974   -0.4909 N   0  0  0  0  0  0  0  0  0  0  0  0
    3.7519    0.7612   -0.0463 H   0  0  0  0  0  0  0  0  0  0  0  0
    0.6142   -1.8338   -1.0757 H   0  0  0  0  0  0  0  0  0  0  0  0
    1.6173    1.4255    1.1177 H   0  0  0  0  0  0  0  0  0  0  0  0
    0.2793    0.4157    2.5936 H   0  0  0  0  0  0  0  0  0  0  0  0
    0.3327   -1.1003    1.6788 H   0  0  0  0  0  0  0  0  0  0  0  0
   -3.2564    0.1982    1.8641 H   0  0  0  0  0  0  0  0  0  0  0  0
   -2.1989   -0.9647    2.6572 H   0  0  0  0  0  0  0  0  0  0  0  0
   -2.0652    0.7613    3.0537 H   0  0  0  0  0  0  0  0  0  0  0  0
   -1.2293    2.3129    1.3199 H   0  0  0  0  0  0  0  0  0  0  0  0
   -2.1754    1.6883   -0.0560 H   0  0  0  0  0  0  0  0  0  0  0  0
   -0.2156    1.0152   -1.2398 H   0  0  0  0  0  0  0  0  0  0  0  0
    0.3393    2.5167   -0.4893 H   0  0  0  0  0  0  0  0  0  0  0  0
    5.2919   -0.2978   -2.4116 H   0  0  0  0  0  0  0  0  0  0  0  0
    5.3212   -2.0315   -2.0599 H   0  0  0  0  0  0  0  0  0  0  0  0
    6.9408   -0.9075   -0.8052 H   0  0  0  0  0  0  0  0  0  0  0  0
    5.8259   -1.5549    0.1781 H   0  0  0  0  0  0  0  0  0  0  0  0
  1  2  1  0
  2  3  2  0
  3  4  1  0
  4  5  2  0
  5  6  1  0
  6  7  1  0
  7  8  1  0
  8  9  1  0
  8 10  1  0
 10 11  1  0
  2 12  1  0
 12 13  1  0
  5  1  1  0
 11  6  1  0
  1 14  1  0
  4 15  1  0
  6 16  1  0
  7 17  1  0
  7 18  1  0
  9 19  1  0
  9 20  1  0
  9 21  1  0
 10 22  1  0
 10 23  1  0
 11 24  1  0
 11 25  1  0
 12 26  1  0
 12 27  1  0
 13 28  1  0
 13 29  1  0
M  END
>  <mol_id>  (37) 
MCULE-9140680577

>  <drugclip_rank>  (37) 
46

>  <conformer>  (37) 
11

>  <align_rmsd>  (37) 
0.094

$$$$
MCULE-8695927329
     RDKit          3D

 27 28  0  0  0  0  0  0  0  0999 V2000
    1.8261    0.8230    0.9223 C   0  0  0  0  0  0  0  0  0  0  0  0
    2.4496   -0.1000   -0.1435 C   0  0  0  0  0  0  0  0  0  0  0  0
    1.9541   -1.2870   -0.6244 C   0  0  0  0  0  0  0  0  0  0  0  0
    2.7935   -1.8027   -1.5805 N   0  0  0  0  0  0  0  0  0  0  0  0
    3.7793   -0.9390   -1.6798 C   0  0  0  0  0  0  0  0  0  0  0  0
    3.6118    0.1155   -0.8272 N   0  0  0  0  0  0  0  0  0  0  0  0
    1.4236    0.2305    2.2514 C   0  0  0  0  0  0  0  0  0  0  0  0
    2.6202    1.1399    2.1627 C   0  0  0  0  0  0  0  0  0  0  0  0
    0.1803    0.7006    2.9538 C   0  0  0  0  0  0  0  0  0  0  0  0
   -1.0591   -0.1256    2.5829 C   0  0  0  0  0  0  0  0  0  0  0  0
   -1.4913    0.1448    1.2088 N   0  0  0  0  0  0  0  0  0  0  0  0
   -2.6526   -0.6612    0.8570 C   0  0  0  0  0  0  0  0  0  0  0  0
    1.2069    1.6201    0.5192 H   0  0  0  0  0  0  0  0  0  0  0  0
    1.0464   -1.8015   -0.3388 H   0  0  0  0  0  0  0  0  0  0  0  0
    4.6300   -1.0213   -2.3428 H   0  0  0  0  0  0  0  0  0  0  0  0
    4.2328    0.9051   -0.7221 H   0  0  0  0  0  0  0  0  0  0  0  0
    1.6236   -0.8191    2.4403 H   0  0  0  0  0  0  0  0  0  0  0  0
    2.5412    2.1420    2.5692 H   0  0  0  0  0  0  0  0  0  0  0  0
    3.5981    0.6900    2.2919 H   0  0  0  0  0  0  0  0  0  0  0  0
   -0.0055    1.7645    2.7592 H   0  0  0  0  0  0  0  0  0  0  0  0
    0.3481    0.6059    4.0337 H   0  0  0  0  0  0  0  0  0  0  0  0
   -0.8416   -1.1929    2.7112 H   0  0  0  0  0  0  0  0  0  0  0  0
   -1.8677    0.1401    3.2741 H   0  0  0  0  0  0  0  0  0  0  0  0
   -0.7295   -0.0708    0.5657 H   0  0  0  0  0  0  0  0  0  0  0  0
   -2.9577   -0.4319   -0.1687 H   0  0  0  0  0  0  0  0  0  0  0  0
   -3.5020   -0.4387    1.5109 H   0  0  0  0  0  0  0  0  0  0  0  0
   -2.4292   -1.7317    0.9104 H   0  0  0  0  0  0  0  0  0  0  0  0
  1  2  1  0
  2  3  2  0
  3  4  1  0
  4  5  2  0
  5  6  1  0
  1  7  1  0
  7  8  1  0
  7  9  1  0
  9 10  1  0
 10 11  1  0
 11 12  1  0
  8  1  1  0
  6  2  1  0
  1 13  1  0
  3 14  1  0
  5 15  1  0
  6 16  1  0
  7 17  1  0
  8 18  1  0
  8 19  1  0
  9 20  1  0
  9 21  1  0
 10 22  1  0
 10 23  1  0
 11 24  1  0
 12 25  1  0
 12 26  1  0
 12 27  1  0
M  END
>  <mol_id>  (38) 
MCULE-8695927329

>  <drugclip_rank>  (38) 
47

>  <conformer>  (38) 
5

>  <align_rmsd>  (38) 
0.21

$$$$
H050-0001
     RDKit          3D

 29 32  0  0  0  0  0  0  0  0999 V2000
   -0.4449    1.3991    1.3682 C   0  0  0  0  0  0  0  0  0  0  0  0
   -1.5526    0.4190    1.4100 N   0  0  0  0  0  0  0  0  0  0  0  0
   -1.1452   -0.9593    1.0582 C   0  0  0  0  0  0  0  0  0  0  0  0
    0.2523   -1.3862    1.5688 C   0  0  2  0  0  0  0  0  0  0  0  0
    0.7093   -0.4199    2.6821 C   0  0  0  0  0  0  0  0  0  0  0  0
    0.9230    0.8722    1.8656 C   0  0  1  0  0  0  0  0  0  0  0  0
    1.6947    0.2798    0.7114 C   0  0  0  0  0  0  0  0  0  0  0  0
    1.3007   -1.0470    0.5371 C   0  0  0  0  0  0  0  0  0  0  0  0
    2.6298    0.8587   -0.1250 C   0  0  0  0  0  0  0  0  0  0  0  0
    3.1876    0.0997   -1.1482 C   0  0  0  0  0  0  0  0  0  0  0  0
    2.7834   -1.2613   -1.3270 C   0  0  0  0  0  0  0  0  0  0  0  0
    1.8347   -1.8190   -0.4768 C   0  0  0  0  0  0  0  0  0  0  0  0
    3.3038   -2.0209   -2.3101 N   0  0  0  0  0  0  0  0  0  0  0  0
    4.2177   -1.4266   -3.1069 C   0  0  0  0  0  0  0  0  0  0  0  0
    4.6074   -0.1140   -2.9345 C   0  0  0  0  0  0  0  0  0  0  0  0
    4.1024    0.6685   -1.9568 N   0  0  0  0  0  0  0  0  0  0  0  0
   -0.3665    1.8069    0.3529 H   0  0  0  0  0  0  0  0  0  0  0  0
   -0.7438    2.2386    2.0077 H   0  0  0  0  0  0  0  0  0  0  0  0
   -1.9282    0.4058    2.3590 H   0  0  0  0  0  0  0  0  0  0  0  0
   -1.8927   -1.6301    1.4992 H   0  0  0  0  0  0  0  0  0  0  0  0
   -1.2267   -1.0900   -0.0278 H   0  0  0  0  0  0  0  0  0  0  0  0
    0.2935   -2.4339    1.8792 H   0  0  0  0  0  0  0  0  0  0  0  0
   -0.0202   -0.3096    3.4916 H   0  0  0  0  0  0  0  0  0  0  0  0
    1.6537   -0.7594    3.1314 H   0  0  0  0  0  0  0  0  0  0  0  0
    1.4986    1.6242    2.4125 H   0  0  0  0  0  0  0  0  0  0  0  0
    2.9323    1.8927    0.0034 H   0  0  0  0  0  0  0  0  0  0  0  0
    1.5243   -2.8488   -0.6196 H   0  0  0  0  0  0  0  0  0  0  0  0
    4.6320   -2.0425   -3.8967 H   0  0  0  0  0  0  0  0  0  0  0  0
    5.3422    0.3495   -3.5825 H   0  0  0  0  0  0  0  0  0  0  0  0
  1  2  1  0
  2  3  1  0
  3  4  1  0
  4  5  1  0
  5  6  1  0
  6  7  1  0
  7  8  2  0
  7  9  1  0
  9 10  2  0
 10 11  1  0
 11 12  2  0
 11 13  1  0
 13 14  2  0
 14 15  1  0
 15 16  2  0
  6  1  1  0
  8  4  1  0
 12  8  1  0
 16 10  1  0
  1 17  1  0
  1 18  1  0
  2 19  1  0
  3 20  1  0
  3 21  1  0
  4 22  1  1
  5 23  1  0
  5 24  1  0
  6 25  1  1
  9 26  1  0
 12 27  1  0
 14 28  1  0
 15 29  1  0
M  END
>  <mol_id>  (39) 
H050-0001

>  <drugclip_rank>  (39) 
50

>  <conformer>  (39) 
0

>  <align_rmsd>  (39) 
0.637

$$$$
