H050-0001
     RDKit          3D

 16 19  0  0  0  0  0  0  0  0999 V2000
   -0.4449    1.3991    1.3682 C   0  0  0  0  0  0  0  0  0  0  0  0
   -1.5526    0.4190    1.4100 N   0  0  0  0  0  0  0  0  0  0  0  0
   -1.1452   -0.9593    1.0582 C   0  0  0  0  0  0  0  0  0  0  0  0
    0.2523   -1.3862    1.5688 C   0  0  2  0  0  0  0  0  0  0  0  0
    0.7093   -0.4199    2.6821 C   0  0  0  0  0  0  0  0  0  0  0  0
    0.9230    0.8722    1.8656 C   0  0  1  0  0  0  0  0  0  0  0  0
    1.6947    0.2798    0.7114 C   0  0  0  0  0  0  0  0  0  0  0  0
    1.3007   -1.0470    0.5371 C   0  0  0  0  0  0  0  0  0  0  0  0
    2.6298    0.8587   -0.1250 C   0  0  0  0  0  0  0  0  0  0  0  0
    3.1876    0.0997   -1.1482 C   0  0  0  0  0  0  0  0  0  0  0  0
    2.7834   -1.2613   -1.3270 C   0  0  0  0  0  0  0  0  0  0  0  0
    1.8347   -1.8190   -0.4768 C   0  0  0  0  0  0  0  0  0  0  0  0
    3.3038   -2.0209   -2.3101 N   0  0  0  0  0  0  0  0  0  0  0  0
    4.2177   -1.4266   -3.1069 C   0  0  0  0  0  0  0  0  0  0  0  0
    4.6074   -0.1140   -2.9345 C   0  0  0  0  0  0  0  0  0  0  0  0
    4.1024    0.6685   -1.9568 N   0  0  0  0  0  0  0  0  0  0  0  0
  1  2  1  0
  2  3  1  0
  4  3  1  6
  4  5  1  0
  5  6  1  0
  6  7  1  0
  7  8  2  0
  7  9  1  0
  9 10  2  0
 10 11  1  0
 11 12  2  0
 11 13  1  0
 13 14  2  0
 14 15  1  0
 15 16  2  0
  6  1  1  6
  8  4  1  0
 12  8  1  0
 16 10  1  0
M  END
>  <mol_id>  (1) 
H050-0001

>  <drugclip_rank>  (1) 
50

>  <conformer>  (1) 
0

>  <align_rmsd>  (1) 
0.637

$$$$
