5KLS_6UC_C1304
     RDKit          3D

 30 31  0  0  0  0  0  0  0  0999 V2000
   22.0670  164.0670   18.4280 C   0  0  0  0  0  0  0  0  0  0  0  0
   21.5010  163.6560   17.0110 C   0  0  0  0  0  0  0  0  0  0  0  0
   22.2590  164.3320   15.9980 O   0  0  0  0  0  0  0  0  0  0  0  0
   22.7950  163.6280   14.8730 C   0  0  0  0  0  0  0  0  0  0  0  0
   22.1280  162.8120   14.2930 O   0  0  0  0  0  0  0  0  0  0  0  0
   24.2560  163.8250   14.3730 C   0  0  0  0  0  0  0  0  0  0  0  0
   25.2840  163.1680   15.0120 C   0  0  0  0  0  0  0  0  0  0  0  0
   26.7090  163.6670   14.6160 N   0  0  0  0  0  0  0  0  0  0  0  0
   26.5640  165.1100   14.8460 C   0  0  0  0  0  0  0  0  0  0  0  0
   25.7790  165.7560   13.9990 C   0  0  0  0  0  0  0  0  0  0  0  0
   24.6500  164.9130   13.3620 C   0  0  0  0  0  0  0  0  0  0  0  0
   24.7500  164.0670   11.9210 C   0  0  0  0  0  0  0  0  0  0  0  0
   24.1770  162.7610   11.9510 C   0  0  0  0  0  0  0  0  0  0  0  0
   24.1230  161.8740   10.8720 C   0  0  0  0  0  0  0  0  0  0  0  0
   24.6320  162.2580    9.6520 C   0  0  0  0  0  0  0  0  0  0  0  0
   25.1770  163.5210    9.5490 C   0  0  0  0  0  0  0  0  0  0  0  0
   25.2290  164.3960   10.6330 C   0  0  0  0  0  0  0  0  0  0  0  0
   26.0480  166.0060   10.0440 Br  0  0  0  0  0  0  0  0  0  0  0  0
   25.7100  167.3810   14.4350 C   0  0  0  0  0  0  0  0  0  0  0  0
   25.4480  168.2020   13.6460 O   0  0  0  0  0  0  0  0  0  0  0  0
   25.8540  167.7710   15.8120 O   0  0  0  0  0  0  0  0  0  0  0  0
   26.5670  168.9300   16.2550 C   0  0  0  0  0  0  0  0  0  0  0  0
   27.7380  165.8340   15.5450 C   0  0  0  0  0  0  0  0  0  0  0  0
   25.0080  162.3960   16.2300 C   0  0  0  0  0  0  0  0  0  0  0  0
   24.7050  163.3740   17.2830 O   0  0  0  0  0  0  0  0  0  0  0  0
   25.7680  163.6770   18.1760 C   0  0  0  0  0  0  0  0  0  0  0  0
   25.5130  165.0280   18.8890 C   0  0  0  0  0  0  0  0  0  0  0  0
   26.7260  165.6020   19.5630 N   0  0  0  0  0  0  0  0  0  0  0  0
   27.9560  164.7990   19.4770 C   0  0  0  0  0  0  0  0  0  0  0  0
   26.9780  167.0040   19.1450 C   0  0  0  0  0  0  0  0  0  0  0  0
  2  1  1  0
  3  2  1  0
  4  3  1  0
  5  4  2  0
  6  4  1  0
  7  6  2  0
  8  7  1  0
  9  8  1  0
 10  9  2  0
 11 10  1  0
 11  6  1  0
 11 12  1  0
 13 12  2  0
 14 13  1  0
 15 14  2  0
 16 15  1  0
 17 16  2  0
 17 12  1  0
 18 17  1  0
 19 10  1  0
 20 19  2  0
 21 19  1  0
 22 21  1  0
 23  9  1  0
 24  7  1  0
 25 24  1  0
 26 25  1  0
 27 26  1  0
 28 27  1  0
 29 28  1  0
 30 28  1  0
M  END
>  <_TriposChargeType>  (1) 
GASTEIGER

$$$$
