7QNC_EI7_B503
     RDKit          3D

 10 11  0  0  0  0  0  0  0  0999 V2000
  188.1690  222.7370  240.0710 N   0  0  0  0  0  0  0  0  0  0  0  0
  186.3800  220.7230  239.9510 C   0  0  0  0  0  0  0  0  0  0  0  0
  187.3720  222.7140  238.8480 C   0  0  0  0  0  0  0  0  0  0  0  0
  188.7400  221.4170  240.3340 C   0  0  0  0  0  0  0  0  0  0  0  0
  186.2210  218.9110  241.3180 N   0  0  0  0  0  0  0  0  0  0  0  0
  185.4180  219.6910  240.3860 C   0  0  0  0  0  0  0  0  0  0  0  0
  184.2500  219.5520  240.0290 O   0  0  0  0  0  0  0  0  0  0  0  0
  187.5590  220.5380  240.5620 C   0  0  0  0  0  0  0  0  0  0  0  0
  186.1320  221.8410  238.9750 C   0  0  0  0  0  0  0  0  0  0  0  0
  187.5090  219.4600  241.3930 O   0  0  0  0  0  0  0  0  0  0  0  0
  3  1  1  0
  4  1  1  0
  6  5  1  0
  6  2  1  0
  7  6  2  0
  8  4  1  0
  8  2  2  0
  9  3  1  0
  9  2  1  0
 10  8  1  0
 10  5  1  0
M  END
>  <_TriposChargeType>  (1) 
GASTEIGER

$$$$
