6DV4_GA5_B201
     RDKit          3D

 49 52  0  0  0  0  0  0  0  0999 V2000
  -10.7340   16.0920   36.3980 O   0  0  0  0  0  0  0  0  0  0  0  0
  -11.1750   14.8930   37.0320 C   0  0  0  0  0  0  0  0  0  0  0  0
  -10.5090   15.8900   35.0710 C   0  0  0  0  0  0  0  0  0  0  0  0
   -9.8460   16.9420   34.4230 C   0  0  0  0  0  0  0  0  0  0  0  0
   -9.5260   16.8130   33.0820 C   0  0  0  0  0  0  0  0  0  0  0  0
   -9.8690   15.6170   32.3950 C   0  0  0  0  0  0  0  0  0  0  0  0
  -10.3930   14.5400   33.0690 C   0  0  0  0  0  0  0  0  0  0  0  0
  -10.7120   14.6740   34.4210 C   0  0  0  0  0  0  0  0  0  0  0  0
   -9.3960   15.5160   30.7150 S   0  0  1  0  0  0  0  0  0  0  0  0
   -8.2100   16.3590   30.5660 O   0  0  0  0  0  0  0  0  0  0  0  0
   -9.3130   14.0830   30.3540 O   0  0  0  0  0  0  0  0  0  0  0  0
  -10.6110   16.1750   29.7970 N   0  0  0  0  0  0  0  0  0  0  0  0
  -11.9050   15.5290   29.9430 C   0  0  0  0  0  0  0  0  0  0  0  0
  -12.6910   15.2700   28.6610 C   0  0  0  0  0  0  0  0  0  0  0  0
  -11.9880   14.3690   27.6640 C   0  0  0  0  0  0  0  0  0  0  0  0
  -14.0790   14.7210   29.0190 C   0  0  0  0  0  0  0  0  0  0  0  0
  -10.6190   17.5860   29.5190 C   0  0  0  0  0  0  0  0  0  0  0  0
  -10.3340   17.8960   28.0450 C   0  0  0  0  0  0  0  0  0  0  0  0
  -10.6450   19.2920   27.8040 O   0  0  0  0  0  0  0  0  0  0  0  0
   -8.9140   17.5940   27.5900 C   0  0  0  0  0  0  0  0  0  0  0  0
   -8.7860   17.6350   26.1260 N   0  0  0  0  0  0  0  0  0  0  0  0
   -8.6650   16.5720   25.3350 C   0  0  0  0  0  0  0  0  0  0  0  0
   -8.8100   15.4470   25.8160 O   0  0  0  0  0  0  0  0  0  0  0  0
   -8.3790   16.7580   23.9840 C   0  0  0  0  0  0  0  0  0  0  0  0
   -9.3210   16.3810   23.0410 C   0  0  0  0  0  0  0  0  0  0  0  0
   -9.0180   16.4190   21.6810 C   0  0  0  0  0  0  0  0  0  0  0  0
   -7.7460   16.8540   21.2270 C   0  0  0  0  0  0  0  0  0  0  0  0
   -6.7770   17.2380   22.1630 C   0  0  0  0  0  0  0  0  0  0  0  0
   -7.1370   17.1940   23.5210 C   0  0  0  0  0  0  0  0  0  0  0  0
   -8.3140   17.9790   19.2770 O   0  0  0  0  0  0  0  0  0  0  0  0
   -7.5700   16.8770   19.8470 C   0  0  0  0  0  0  0  0  0  0  0  0
   -6.1340   17.0970   19.4050 C   0  0  0  0  0  0  0  0  0  0  0  0
   -5.4700   18.1240   20.3220 C   0  0  0  0  0  0  0  0  0  0  0  0
   -5.4800   17.5760   21.7500 C   0  0  0  0  0  0  0  0  0  0  0  0
   -4.8240   18.5560   22.5920 N   0  0  0  0  0  0  0  0  0  0  0  0
   -3.4820   18.6370   22.8220 C   0  0  0  0  0  0  0  0  0  0  0  0
   -2.6880   17.7680   22.4820 O   0  0  0  0  0  0  0  0  0  0  0  0
   -3.1000   19.6880   23.5740 O   0  0  0  0  0  0  0  0  0  0  0  0
   -1.7570   20.0180   23.7800 C   0  0  1  0  0  0  0  0  0  0  0  0
   -1.1680   19.0850   24.8450 C   0  0  0  0  0  0  0  0  0  0  0  0
   -0.8560   19.9630   22.5470 C   0  0  0  0  0  0  0  0  0  0  0  0
   -1.8240   21.4620   24.2980 C   0  0  0  0  0  0  0  0  0  0  0  0
   -7.8700   18.5240   28.2140 C   0  0  0  0  0  0  0  0  0  0  0  0
   -5.8890   18.9110   26.6810 C   0  0  0  0  0  0  0  0  0  0  0  0
   -4.6370   18.5490   26.2000 C   0  0  0  0  0  0  0  0  0  0  0  0
   -4.0140   17.3670   26.6180 C   0  0  0  0  0  0  0  0  0  0  0  0
   -4.5700   16.6660   27.6760 C   0  0  0  0  0  0  0  0  0  0  0  0
   -5.7970   17.0570   28.1940 C   0  0  0  0  0  0  0  0  0  0  0  0
   -6.4670   18.1740   27.7150 C   0  0  0  0  0  0  0  0  0  0  0  0
  2  1  1  0
  3  1  1  0
  4  3  2  0
  5  4  1  0
  6  5  2  0
  7  6  1  0
  8  7  2  0
  8  3  1  0
  9  6  1  0
 10  9  2  0
 11  9  2  0
  9 12  1  6
 13 12  1  0
 14 13  1  0
 14 15  1  0
 16 14  1  0
 17 12  1  0
 18 17  1  0
 18 19  1  0
 20 18  1  0
 21 20  1  0
 22 21  1  0
 23 22  2  0
 24 22  1  0
 25 24  2  0
 26 25  1  0
 27 26  2  0
 28 27  1  0
 29 28  2  0
 29 24  1  0
 31 30  1  0
 31 27  1  0
 32 31  1  0
 33 32  1  0
 34 33  1  0
 34 28  1  0
 34 35  1  0
 36 35  1  0
 37 36  2  0
 38 36  1  0
 39 38  1  0
 39 40  1  1
 41 39  1  0
 42 39  1  0
 20 43  1  0
 45 44  2  0
 46 45  1  0
 47 46  2  0
 48 47  1  0
 49 44  1  0
 49 48  2  0
 49 43  1  0
M  CHG  1  12   1
M  END
>  <_TriposChargeType>  (1) 
GASTEIGER

$$$$
