5KIR_RCX_A601
     RDKit          3D

 22 24  0  0  0  0  0  0  0  0999 V2000
   23.7510    2.8090   32.5220 C   0  0  0  0  0  0  0  0  0  0  0  0
   22.9060    1.6390   32.5210 C   0  0  0  0  0  0  0  0  0  0  0  0
   22.3870    1.5480   31.2190 C   0  0  0  0  0  0  0  0  0  0  0  0
   23.6670    3.3120   31.2100 C   0  0  0  0  0  0  0  0  0  0  0  0
   22.8610    2.5440   30.4890 O   0  0  0  0  0  0  0  0  0  0  0  0
   24.3340    4.4450   30.7270 O   0  0  0  0  0  0  0  0  0  0  0  0
   24.5910    3.4130   33.6830 C   0  0  0  0  0  0  0  0  0  0  0  0
   24.0350    3.6090   34.9450 C   0  0  0  0  0  0  0  0  0  0  0  0
   24.8100    4.1650   35.9800 C   0  0  0  0  0  0  0  0  0  0  0  0
   26.1350    4.5300   35.7480 C   0  0  0  0  0  0  0  0  0  0  0  0
   26.6900    4.3390   34.4850 C   0  0  0  0  0  0  0  0  0  0  0  0
   25.9170    3.7820   33.4540 C   0  0  0  0  0  0  0  0  0  0  0  0
   22.5820    0.6810   33.6410 C   0  0  0  0  0  0  0  0  0  0  0  0
   23.5460    0.2220   34.5340 C   0  0  0  0  0  0  0  0  0  0  0  0
   23.1790   -0.6700   35.5370 C   0  0  0  0  0  0  0  0  0  0  0  0
   21.8650   -1.0970   35.6410 C   0  0  0  0  0  0  0  0  0  0  0  0
   20.9120   -0.6380   34.7410 C   0  0  0  0  0  0  0  0  0  0  0  0
   21.2760    0.2440   33.7400 C   0  0  0  0  0  0  0  0  0  0  0  0
   21.3540   -2.2360   36.9050 S   0  0  2  0  0  0  0  0  0  0  0  0
   21.5780   -3.6540   36.4380 O   0  0  0  0  0  0  0  0  0  0  0  0
   19.8840   -2.0120   37.2100 O   0  0  0  0  0  0  0  0  0  0  0  0
   22.3130   -1.9920   38.3850 C   0  0  0  0  0  0  0  0  0  0  0  0
  2  1  2  0
  3  2  1  0
  4  1  1  0
  5  4  1  0
  5  3  1  0
  6  4  2  0
  7  1  1  0
  8  7  2  0
  9  8  1  0
 10  9  2  0
 11 10  1  0
 12 11  2  0
 12  7  1  0
 13  2  1  0
 14 13  2  0
 15 14  1  0
 16 15  2  0
 17 16  1  0
 18 17  2  0
 18 13  1  0
 19 16  1  0
 20 19  2  0
 21 19  2  0
 19 22  1  1
M  END
>  <_TriposChargeType>  (1) 
GASTEIGER

$$$$
