5IKR_ID8_A601
     RDKit          3D

 32 33  0  0  0  0  0  0  0  0999 V2000
   28.7050    5.2570   33.4340 O   0  0  0  0  0  0  0  0  0  0  0  0
   27.6740    4.7810   33.1160 C   0  0  0  0  0  0  0  0  0  0  0  0
   27.6990    4.2960   32.0150 O   0  0  0  0  0  0  0  0  0  0  0  0
   26.5400    4.7340   34.0980 C   0  0  0  0  0  0  0  0  0  0  0  0
   26.8340    5.1260   35.3730 C   0  0  0  0  0  0  0  0  0  0  0  0
   25.9070    5.1250   36.3540 C   0  0  0  0  0  0  0  0  0  0  0  0
   24.6450    4.7370   36.0690 C   0  0  0  0  0  0  0  0  0  0  0  0
   24.3360    4.3550   34.8160 C   0  0  0  0  0  0  0  0  0  0  0  0
   25.2550    4.3210   33.8280 C   0  0  0  0  0  0  0  0  0  0  0  0
   24.9320    3.8320   32.6370 N   0  0  0  0  0  0  0  0  0  0  0  0
   23.9570    3.0170   32.2510 C   0  0  0  0  0  0  0  0  0  0  0  0
   23.4600    3.1430   30.9820 C   0  0  0  0  0  0  0  0  0  0  0  0
   24.0540    4.0760   30.0110 C   0  0  2  0  0  0  0  0  0  0  0  0
   23.3530    2.1450   33.1170 C   0  0  0  0  0  0  0  0  0  0  0  0
   22.2740    1.4160   32.7370 C   0  0  0  0  0  0  0  0  0  0  0  0
   21.7930    1.5530   31.4830 C   0  0  0  0  0  0  0  0  0  0  0  0
   22.3700    2.4080   30.6140 C   0  0  0  0  0  0  0  0  0  0  0  0
   21.7850    2.5170   29.2610 C   0  0  1  0  0  0  0  0  0  0  0  0
   27.8330    5.4360   35.6050 H   0  0  0  0  0  0  0  0  0  0  0  0
   26.1650    5.4170   37.3570 H   0  0  0  0  0  0  0  0  0  0  0  0
   23.8970    4.7100   36.8430 H   0  0  0  0  0  0  0  0  0  0  0  0
   23.3260    4.0460   34.6330 H   0  0  0  0  0  0  0  0  0  0  0  0
   25.4420    4.1270   31.9980 H   0  0  0  0  0  0  0  0  0  0  0  0
   23.7370    2.0410   34.1160 H   0  0  0  0  0  0  0  0  0  0  0  0
   24.4510    4.8960   30.5340 H   0  0  0  0  0  0  0  0  0  0  0  0
   23.3090    4.4150   29.3530 H   0  0  0  0  0  0  0  0  0  0  0  0
   24.8180    3.5950   29.4700 H   0  0  0  0  0  0  0  0  0  0  0  0
   21.8010    0.7490   33.4340 H   0  0  0  0  0  0  0  0  0  0  0  0
   20.9300    0.9960   31.1800 H   0  0  0  0  0  0  0  0  0  0  0  0
   21.4190    1.5750   28.9690 H   0  0  0  0  0  0  0  0  0  0  0  0
   20.9980    3.2150   29.2710 H   0  0  0  0  0  0  0  0  0  0  0  0
   22.5260    2.8290   28.5820 H   0  0  0  0  0  0  0  0  0  0  0  0
  2  1  2  0
  3  2  1  0
  4  2  1  0
  5  4  2  0
  6  5  1  0
  7  6  2  0
  8  7  1  0
  9  8  2  0
  9  4  1  0
 10  9  1  0
 11 10  1  0
 12 11  2  0
 13 12  1  0
 14 11  1  0
 15 14  2  0
 16 15  1  0
 17 16  2  0
 17 12  1  0
 18 17  1  0
 19  5  1  0
 20  6  1  0
 21  7  1  0
 22  8  1  0
 23 10  1  0
 24 14  1  0
 13 25  1  1
 26 13  1  0
 27 13  1  0
 28 15  1  0
 29 16  1  0
 18 30  1  6
 31 18  1  0
 32 18  1  0
M  CHG  1   3  -1
M  END
>  <_TriposChargeType>  (1) 
GASTEIGER

$$$$
