@<TRIPOS>MOLECULE
6HUP_DZP_D2001
 20 22 0 0 0
SMALL
GASTEIGER

@<TRIPOS>ATOM
      1 C         188.9500  224.0560  244.1020 C.ar    1  UNL1        0.0000
      2 C         189.0220  225.4300  244.1130 C.ar    1  UNL1        0.0000
      3 C         188.3490  226.1580  243.1590 C.ar    1  UNL1        0.0000
      4 C         187.5960  225.5160  242.1960 C.ar    1  UNL1        0.0015
      5 C         186.6980  223.4330  241.1530 C.2     1  UNL1        0.0777
      6 C         185.8440  223.9230  238.8330 C.ar    1  UNL1        0.0554
      7 C         186.0920  224.2040  237.4960 C.ar    1  UNL1        0.0158
      8 C         187.3870  224.3330  237.0390 C.ar    1  UNL1        0.0127
      9 C         188.4250  224.1800  237.9200 C.ar    1  UNL1        0.0578
     10 C         188.2090  223.4060  243.1340 C.ar    1  UNL1        0.0015
     11 C         187.5210  224.1320  242.1730 C.ar    1  UNL1        0.0173
     12 C         186.9100  223.7750  239.7250 C.ar    1  UNL1        0.0318
     13 C         188.2120  223.9130  239.2520 C.ar    1  UNL1        0.0141
     14 N         185.8740  222.5480  241.5690 N.2     1  UNL1       -0.2605
     15 C         185.0600  221.8610  240.5610 C.3     1  UNL1        0.2104
     16 C         184.0240  222.8400  240.0640 C.2     1  UNL1        0.2542
     17 C         183.5370  224.8180  238.7550 C.3     1  UNL1        0.1201
     18 N         184.4910  223.8350  239.2580 N.am    1  UNL1       -0.2552
     19 O         182.8430  222.7430  240.3440 O.2     1  UNL1       -0.2724
     20 CL        190.0540  224.3690  237.3490 Cl      1  UNL1       -0.0822
@<TRIPOS>BOND
     1     2     1   ar
     2     3     2   ar
     3     4     3   ar
     4     7     6   ar
     5     8     7   ar
     6     9     8   ar
     7    10     1   ar
     8    11    10   ar
     9    11     5    1
    10    11     4   ar
    11    12     5    1
    12    12     6   ar
    13    13    12   ar
    14    13     9   ar
    15    14     5    2
    16    15    14    1
    17    16    15    1
    18    18    16   am
    19    18    17    1
    20    18     6    1
    21    19    16    2
    22    20     9    1
