@<TRIPOS>MOLECULE
6X3X_DZP_D404
 20 22 0 0 0
SMALL
GASTEIGER

@<TRIPOS>ATOM
      1 C         188.9750  225.7750  243.6330 C.ar    1  UNL1        0.0000
      2 C         189.2780  224.7510  244.6180 C.ar    1  UNL1        0.0000
      3 C         188.6870  223.4310  244.5130 C.ar    1  UNL1        0.0000
      4 C         187.7900  223.1330  243.4170 C.ar    1  UNL1        0.0015
      5 C         186.4870  223.5320  241.3690 C.2     1  UNL1        0.0777
      6 C         185.8450  223.8740  238.8330 C.ar    1  UNL1        0.0554
      7 C         186.2080  224.1000  237.4280 C.ar    1  UNL1        0.0158
      8 C         187.5960  224.1980  237.0130 C.ar    1  UNL1        0.0127
      9 C         188.6340  224.0830  238.0170 C.ar    1  UNL1        0.0578
     10 C         188.0780  225.4830  242.5330 C.ar    1  UNL1        0.0015
     11 C         187.4910  224.1640  242.4390 C.ar    1  UNL1        0.0173
     12 C         186.9070  223.7680  239.8280 C.ar    1  UNL1        0.0318
     13 C         188.2990  223.8780  239.4080 C.ar    1  UNL1        0.0141
     14 N         185.9730  222.1510  241.7090 N.2     1  UNL1       -0.2605
     15 C         185.0740  221.5220  240.6780 C.3     1  UNL1        0.2104
     16 C         184.0050  222.5940  240.1790 C.2     1  UNL1        0.2542
     17 C         183.3350  224.7780  238.8220 C.3     1  UNL1        0.1201
     18 N         184.3740  223.7720  239.2900 N.am    1  UNL1       -0.2552
     19 O         182.8280  222.4760  240.5530 O.2     1  UNL1       -0.2724
     20 CL        190.4220  224.2060  237.5230 Cl      1  UNL1       -0.0822
@<TRIPOS>BOND
     1     2     1   ar
     2     3     2   ar
     3     4     3   ar
     4     7     6   ar
     5     8     7   ar
     6     9     8   ar
     7    10     1   ar
     8    11     4   ar
     9    11    10   ar
    10    11     5    1
    11    12     6   ar
    12    12     5    1
    13    13     9   ar
    14    13    12   ar
    15    14     5    2
    16    15    14    1
    17    16    15    1
    18    18    16   am
    19    18    17    1
    20    18     6    1
    21    19    16    2
    22    20     9    1
