@<TRIPOS>MOLECULE
8VQY_A1ADG_E401
 19 21 0 0 0
SMALL
GASTEIGER

@<TRIPOS>ATOM
      1 C         187.9980  224.1560  238.4390 C.3     1  UNL1        0.0326
      2 C         186.6200  224.1000  238.6210 C.ar    1  UNL1       -0.0056
      3 C         185.8770  223.9840  237.4590 C.ar    1  UNL1       -0.0028
      4 C         184.4970  223.9290  237.5020 C.ar    1  UNL1       -0.0002
      5 C         183.8440  223.9890  238.7180 C.ar    1  UNL1        0.0015
      6 C         184.5820  224.1080  239.8800 C.ar    1  UNL1        0.0173
      7 C         185.9660  224.1570  239.8620 C.ar    1  UNL1        0.0639
      8 C         187.0220  225.5080  241.4480 C.ar    1  UNL1        0.1267
      9 C         187.8400  224.6830  243.4530 C.ar    1  UNL1        0.0872
     10 C         188.4830  224.9120  244.6620 C.ar    1  UNL1        0.0193
     11 C         188.6990  223.8570  245.5350 C.ar    1  UNL1        0.0015
     12 C         188.2710  222.5820  245.1870 C.ar    1  UNL1        0.0003
     13 C         187.6280  222.3560  243.9740 C.ar    1  UNL1        0.0063
     14 C         187.4090  223.4150  243.0950 C.ar    1  UNL1        0.0742
     15 C         186.7670  223.2440  241.8660 C.ar    1  UNL1        0.2669
     16 C         186.8430  226.6190  240.6550 C.3     1  UNL1        0.0723
     17 N         186.5910  224.2960  241.0530 N.ar    1  UNL1       -0.2629
     18 N         187.6350  225.6990  242.6200 N.ar    1  UNL1       -0.2318
     19 O         186.3560  222.1470  241.5060 O.2     1  UNL1       -0.2665
@<TRIPOS>BOND
     1     2     1    1
     2     3     2   ar
     3     4     3   ar
     4     5     4   ar
     5     6     5   ar
     6     7     6   ar
     7     7     2   ar
     8    10     9   ar
     9    11    10   ar
    10    12    11   ar
    11    13    12   ar
    12    14    13   ar
    13    14     9   ar
    14    15    14   ar
    15    16     8    1
    16    17    15   ar
    17    17     8   ar
    18    17     7    1
    19    18     9   ar
    20    18     8   ar
    21    19    15    2
