@<TRIPOS>MOLECULE
4XNX_41X_A707
 23 25 0 0 0
SMALL
GASTEIGER

@<TRIPOS>ATOM
      1 C         127.0760  132.2960  131.1810 C.3     1  UNL1        0.0512
      2 C         127.8030  131.4190  130.1760 C.3     1  UNL1        0.2057
      3 O         128.8610  130.6970  130.8090 O.3     1  UNL1       -0.4724
      4 C         130.1600  130.9190  130.4390 C.ar    1  UNL1        0.1722
      5 C         130.4600  132.0110  129.6340 C.ar    1  UNL1        0.0400
      6 C         131.7780  132.2610  129.2430 C.ar    1  UNL1        0.0033
      7 C         132.8100  131.4120  129.6630 C.ar    1  UNL1        0.0033
      8 C         132.4960  130.3230  130.4750 C.ar    1  UNL1        0.0401
      9 C         131.1800  130.0780  130.8670 C.ar    1  UNL1        0.1726
     10 O         130.9380  128.9810  131.6620 O.3     1  UNL1       -0.4691
     11 C         130.0310  128.9740  132.7730 C.3     1  UNL1        0.2166
     12 C         130.4160  129.9910  133.7810 C.ar    1  UNL1        0.0197
     13 C         131.7010  129.9720  134.3220 C.ar    1  UNL1       -0.0007
     14 C         132.0550  130.9440  135.2550 C.ar    1  UNL1       -0.0002
     15 C         131.1390  131.9290  135.6480 C.ar    1  UNL1       -0.0000
     16 C         129.8510  131.9460  135.0990 C.ar    1  UNL1       -0.0002
     17 C         129.4870  130.9760  134.1590 C.ar    1  UNL1       -0.0007
     18 C         129.9580  127.5460  133.3130 C.3     1  UNL1        0.1766
     19 O         129.0920  127.4190  134.4300 O.3     1  UNL1       -0.3492
     20 C         128.6470  126.0560  134.4230 C.3     1  UNL1        0.1610
     21 C         129.8540  125.1090  134.5710 C.3     1  UNL1        0.1208
     22 N         130.9980  125.4570  133.6830 N.3     1  UNL1       -0.2127
     23 C         131.2850  126.9090  133.6970 C.3     1  UNL1        0.1223
@<TRIPOS>BOND
     1     2     1    1
     2     3     2    1
     3     4     3    1
     4     5     4   ar
     5     6     5   ar
     6     7     6   ar
     7     8     7   ar
     8     9     4   ar
     9     9     8   ar
    10    10     9    1
    11    11    10    1
    12    12    11    1
    13    13    12   ar
    14    14    13   ar
    15    15    14   ar
    16    16    15   ar
    17    17    12   ar
    18    17    16   ar
    19    18    11    1
    20    19    18    1
    21    20    19    1
    22    21    20    1
    23    22    21    1
    24    18    23    1
    25    23    22    1
