@<TRIPOS>MOLECULE
4XP6_B40_A601
 11 11 0 0 0
SMALL
GASTEIGER

@<TRIPOS>ATOM
      1 N         130.2590  127.0510  134.9610 N.3     1  UNL1       -0.2176
      2 C         130.1490  128.3190  134.2160 C.3     1  UNL1        0.0772
      3 C         130.3470  129.4850  135.1760 C.3     1  UNL1        0.0192
      4 C         131.1910  128.3460  133.1030 C.3     1  UNL1        0.0437
      5 C         130.8320  129.4060  132.0870 C.ar    1  UNL1       -0.0208
      6 C         131.7850  129.8380  131.1710 C.ar    1  UNL1       -0.0042
      7 C         129.5490  129.9420  132.0600 C.ar    1  UNL1       -0.0042
      8 C         131.4570  130.8120  130.2340 C.ar    1  UNL1       -0.0003
      9 C         129.2220  130.9160  131.1230 C.ar    1  UNL1       -0.0003
     10 C         130.1760  131.3500  130.2100 C.ar    1  UNL1       -0.0000
     11 C         130.0420  125.9240  134.0420 C.3     1  UNL1        0.1074
@<TRIPOS>BOND
     1     2     1    1
     2     2     3    1
     3     4     2    1
     4     5     4    1
     5     6     5   ar
     6     7     5   ar
     7     8     6   ar
     8     9     7   ar
     9    10     9   ar
    10    10     8   ar
    11    11     1    1
