@<TRIPOS>MOLECULE
4XPH_42J_A602
 11 11 0 0 0
SMALL
GASTEIGER

@<TRIPOS>ATOM
      1 CL        128.9470  131.5180  130.3200 Cl      1  UNL1       -0.0814
      2 C         129.9520  130.4270  131.3260 C.ar    1  UNL1        0.0679
      3 C         131.3050  130.3140  131.0600 C.ar    1  UNL1        0.0682
      4 CL        132.0250  131.2630  129.7160 Cl      1  UNL1       -0.0814
      5 C         132.0990  129.4740  131.8320 C.ar    1  UNL1        0.0119
      6 C         131.5310  128.7470  132.8700 C.ar    1  UNL1       -0.0033
      7 C         129.3800  129.7040  132.3640 C.ar    1  UNL1        0.0080
      8 C         130.1700  128.8580  133.1340 C.ar    1  UNL1       -0.0198
      9 C         129.5540  128.0680  134.2660 C.3     1  UNL1        0.0469
     10 C         130.4440  126.8780  134.6120 C.3     1  UNL1        0.1140
     11 N         129.9830  125.7020  133.8980 N.3     1  UNL1       -0.1310
@<TRIPOS>BOND
     1     2     1    1
     2     3     2   ar
     3     4     3    1
     4     5     3   ar
     5     6     5   ar
     6     7     2   ar
     7     8     7   ar
     8     8     6   ar
     9     9     8    1
    10    10     9    1
    11    11    10    1
