@<TRIPOS>MOLECULE
4XPT_42J_A602
 11 11 0 0 0
SMALL
GASTEIGER

@<TRIPOS>ATOM
      1 CL        129.1270  131.7150  130.0740 Cl      1  UNL1       -0.0814
      2 C         130.0850  130.4480  130.9080 C.ar    1  UNL1        0.0679
      3 C         131.4360  130.3090  130.6320 C.ar    1  UNL1        0.0682
      4 CL        132.2250  131.3950  129.4410 Cl      1  UNL1       -0.0814
      5 C         132.1790  129.3270  131.2790 C.ar    1  UNL1        0.0119
      6 C         131.5660  128.4860  132.2010 C.ar    1  UNL1       -0.0033
      7 C         129.4720  129.6070  131.8300 C.ar    1  UNL1        0.0080
      8 C         130.2110  128.6250  132.4790 C.ar    1  UNL1       -0.0198
      9 C         129.5340  127.7120  133.4790 C.3     1  UNL1        0.0469
     10 C         130.4940  126.6130  133.9200 C.3     1  UNL1        0.1140
     11 N         131.3690  127.1240  134.9570 N.3     1  UNL1       -0.1310
@<TRIPOS>BOND
     1     2     1    1
     2     3     2   ar
     3     4     3    1
     4     5     3   ar
     5     6     5   ar
     6     7     2   ar
     7     8     7   ar
     8     8     6   ar
     9     9     8    1
    10    10     9    1
    11    11    10    1
