@<TRIPOS>MOLECULE
6M0Z_LNR_A707
 23 23 0 0 0
SMALL
GASTEIGER

@<TRIPOS>ATOM
      1  OAC      127.6610  131.8640  131.5410 O.3   707  LNR707     -0.5033
      2  CAJ      128.8640  131.0610  131.4720 C.ar  707  LNR707      0.1586
      3  CAG      129.1420  130.0600  132.4860 C.ar  707  LNR707     -0.0109
      4  CAI      129.7400  131.2430  130.4590 C.ar  707  LNR707      0.1582
      5  OAB      129.4860  132.2150  129.4620 O.3   707  LNR707     -0.5033
      6  CAE      130.9080  130.4700  130.3860 C.ar  707  LNR707     -0.0162
      7  CAF      131.1790  129.4820  131.3870 C.ar  707  LNR707     -0.0524
      8  CAK      130.2950  129.2900  132.4120 C.ar  707  LNR707     -0.0143
      9  CAL      130.5890  128.2560  133.4590 C.3   707  LNR707      0.0925
     10  OAD      130.0280  128.6470  134.6490 O.3   707  LNR707     -0.3859
     11  CAH      129.9900  126.8170  133.0360 C.3   707  LNR707      0.0235
     12  NAA      129.7930  125.9710  134.2370 N.3   707  LNR707     -0.3274
     13 HOAC      127.7960  132.5370  132.0430 H     707  LNR707      0.2923
     14  HAG      128.5470  129.9320  133.1890 H     707  LNR707      0.0659
     15 HOAB      129.0320  131.8670  128.8340 H     707  LNR707      0.2923
     16  HAE      131.5060  130.5990  129.6870 H     707  LNR707      0.0655
     17  HAF      131.9550  128.9730  131.3400 H     707  LNR707      0.0622
     18  HAL      131.5520  128.1760  133.5530 H     707  LNR707      0.0656
     19 HOAD      130.6440  128.8370  135.2030 H     707  LNR707      0.2103
     20  HAH      130.6070  126.3750  132.4330 H     707  LNR707      0.0451
     21 HAHA      129.1390  126.9400  132.5890 H     707  LNR707      0.0451
     22 HNAA      130.3230  125.2580  134.1810 H     707  LNR707      0.1183
     23 HNAB      130.0110  126.4380  134.9630 H     707  LNR707      0.1183
@<TRIPOS>BOND
     1    15     5    1
     2     5     4    1
     3    16     6    1
     4     6     4   ar
     5     6     7   ar
     6     4     2   ar
     7    17     7    1
     8     7     8   ar
     9     2     1    1
    10     2     3   ar
    11     1    13    1
    12     8     3   ar
    13     8     9    1
    14    20    11    1
    15     3    14    1
    16    21    11    1
    17    11     9    1
    18    11    12    1
    19     9    18    1
    20     9    10    1
    21    22    12    1
    22    12    23    1
    23    10    19    1
