@<TRIPOS>MOLECULE
6M2R_LNR_A704
 23 23 0 0 0
SMALL
GASTEIGER

@<TRIPOS>ATOM
      1  OAC      127.9820  131.5390  131.1390 O.3   704  LNR704     -0.5033
      2  CAJ      129.1990  130.8960  131.4290 C.ar  704  LNR704      0.1586
      3  CAG      129.3410  130.1750  132.6090 C.ar  704  LNR704     -0.0109
      4  CAI      130.2650  130.9820  130.5440 C.ar  704  LNR704      0.1582
      5  OAB      130.1460  131.7200  129.3520 O.3   704  LNR704     -0.5033
      6  CAE      131.4620  130.3470  130.8440 C.ar  704  LNR704     -0.0162
      7  CAF      131.6000  129.6260  132.0230 C.ar  704  LNR704     -0.0524
      8  CAK      130.5370  129.5300  132.9110 C.ar  704  LNR704     -0.0143
      9  CAL      130.6750  128.7320  134.2190 C.3   704  LNR704      0.0925
     10  OAD      130.5650  129.6520  135.2780 O.3   704  LNR704     -0.3859
     11  CAH      129.6040  127.6390  134.3030 C.3   704  LNR704      0.0235
     12  NAA      130.2200  126.3200  134.3810 N.3   704  LNR704     -0.3274
     13 HOAC      128.1280  132.2060  130.6330 H     704  LNR704      0.2923
     14  HAG      128.6280  130.1240  133.2050 H     704  LNR704      0.0659
     15 HOAB      130.8760  131.6770  128.9190 H     704  LNR704      0.2923
     16  HAE      132.1770  130.4040  130.2520 H     704  LNR704      0.0655
     17  HAF      132.4060  129.2060  132.2180 H     704  LNR704      0.0622
     18  HAL      131.5320  128.2780  134.2620 H     704  LNR704      0.0656
     19 HOAD      130.9330  129.3290  135.9720 H     704  LNR704      0.2103
     20  HAH      129.0430  127.6820  133.5120 H     704  LNR704      0.0451
     21 HAHA      129.0610  127.7850  135.0920 H     704  LNR704      0.0451
     22 HNAA      131.1030  126.4010  134.4680 H     704  LNR704      0.1183
     23 HNAB      129.8970  125.8900  135.0880 H     704  LNR704      0.1183
@<TRIPOS>BOND
     1    15     5    1
     2     5     4    1
     3    16     6    1
     4     4     6   ar
     5     4     2   ar
     6    13     1    1
     7     6     7   ar
     8     1     2    1
     9     2     3   ar
    10     7    17    1
    11     7     8   ar
    12     3     8   ar
    13     3    14    1
    14     8     9    1
    15    20    11    1
    16     9    18    1
    17     9    11    1
    18     9    10    1
    19    11    12    1
    20    11    21    1
    21    12    22    1
    22    12    23    1
    23    10    19    1
