@<TRIPOS>MOLECULE
6M38_29E_A601
 21 23 0 0 0
SMALL
GASTEIGER

@<TRIPOS>ATOM
      1 C         130.9780  125.0330  135.3940 C.3     1  UNL1        0.1075
      2 N         129.8320  125.2740  134.5340 N.3     1  UNL1       -0.2164
      3 C         130.1470  126.3250  133.5840 C.3     1  UNL1        0.0929
      4 C         130.7630  127.5560  134.2610 C.3     1  UNL1        0.0675
      5 C         130.0970  128.8120  133.6810 C.3     1  UNL1        0.1955
      6 C         130.2410  130.0200  134.6240 C.ar    1  UNL1        0.0468
      7 S         131.4810  130.9570  134.7390 S.2     1  UNL1       -0.0873
      8 C         131.1650  132.0320  135.8150 C.ar    1  UNL1        0.0352
      9 C         129.8320  131.7830  136.3210 C.ar    1  UNL1        0.0073
     10 C         129.2440  130.5060  135.5660 C.ar    1  UNL1        0.0062
     11 O         130.6530  129.0930  132.4170 O.3     1  UNL1       -0.4742
     12 C         129.9390  130.0580  131.7010 C.ar    1  UNL1        0.1388
     13 C         130.8110  130.6870  130.7860 C.ar    1  UNL1        0.0340
     14 C         132.1640  130.3050  130.6990 C.ar    1  UNL1        0.0030
     15 C         133.0110  130.9320  129.7930 C.ar    1  UNL1        0.0001
     16 C         132.5370  131.9410  128.9620 C.ar    1  UNL1        0.0000
     17 C         131.2030  132.3200  129.0470 C.ar    1  UNL1        0.0001
     18 C         130.3420  131.6850  129.9660 C.ar    1  UNL1        0.0029
     19 C         128.9980  132.0830  130.0400 C.ar    1  UNL1        0.0002
     20 C         128.1480  131.4610  130.9430 C.ar    1  UNL1        0.0031
     21 C         128.6130  130.4510  131.7800 C.ar    1  UNL1        0.0369
@<TRIPOS>BOND
     1     2     1    1
     2     3     2    1
     3     4     3    1
     4     5     4    1
     5     6     5    1
     6     7     6   ar
     7     8     7   ar
     8     9     8   ar
     9    10     6   ar
    10    10     9   ar
    11    11     5    1
    12    12    11    1
    13    13    12   ar
    14    14    13   ar
    15    15    14   ar
    16    16    15   ar
    17    17    16   ar
    18    18    13   ar
    19    18    17   ar
    20    19    18   ar
    21    20    19   ar
    22    21    12   ar
    23    21    20   ar
