@<TRIPOS>MOLECULE
8HFI_DSM_A701
 20 22 0 0 0
SMALL
GASTEIGER

@<TRIPOS>ATOM
      1 C         128.6840  125.1360  133.1420 C.3     1  UNL1        0.1075
      2 N         129.9820  125.5160  133.6990 N.3     1  UNL1       -0.2165
      3 C         130.5240  126.7640  133.1640 C.3     1  UNL1        0.0905
      4 C         131.3430  126.5290  131.9090 C.3     1  UNL1        0.0406
      5 C         131.5690  127.7690  131.0590 C.3     1  UNL1        0.0970
      6 N         130.3680  128.5970  130.9640 N.pl3   1  UNL1       -0.2873
      7 C         129.2470  127.8620  130.5140 C.ar    1  UNL1        0.0475
      8 C         129.3930  126.7760  129.6630 C.ar    1  UNL1        0.0145
      9 C         128.2910  126.0330  129.3220 C.ar    1  UNL1        0.0013
     10 C         127.0590  126.3410  129.8430 C.ar    1  UNL1       -0.0002
     11 C         126.9190  127.4070  130.6970 C.ar    1  UNL1       -0.0030
     12 C         128.0140  128.1690  131.0780 C.ar    1  UNL1       -0.0082
     13 C         127.9850  129.3600  131.9930 C.3     1  UNL1        0.0323
     14 C         128.2540  130.6750  131.2220 C.3     1  UNL1        0.0323
     15 C         129.5480  130.8070  130.4530 C.ar    1  UNL1       -0.0082
     16 C         130.5410  129.8310  130.3070 C.ar    1  UNL1        0.0475
     17 C         129.7650  132.0210  129.8120 C.ar    1  UNL1       -0.0030
     18 C         130.9080  132.2700  129.0880 C.ar    1  UNL1       -0.0002
     19 C         131.8770  131.3110  128.9810 C.ar    1  UNL1        0.0013
     20 C         131.7020  130.0900  129.5870 C.ar    1  UNL1        0.0145
@<TRIPOS>BOND
     1     2     1    1
     2     3     2    1
     3     4     3    1
     4     5     4    1
     5     6     5    1
     6     7     6    1
     7     8     7   ar
     8     9     8   ar
     9    10     9   ar
    10    11    10   ar
    11    12    11   ar
    12    12     7   ar
    13    13    12    1
    14    14    13    1
    15    15    14    1
    16    16     6    1
    17    16    15   ar
    18    17    15   ar
    19    18    17   ar
    20    19    18   ar
    21    20    16   ar
    22    20    19   ar
