@<TRIPOS>MOLECULE
8HFL_1XR_A701
 16 16 0 0 0
SMALL
GASTEIGER

@<TRIPOS>ATOM
      1 C         128.9590  127.7300  133.0630 C.3     1  UNL1        0.0271
      2 C         129.2970  127.7770  131.5790 C.3     1  UNL1        0.1341
      3 C         130.5890  128.5580  131.3540 C.2     1  UNL1        0.1887
      4 C         130.5360  129.8570  130.6360 C.ar    1  UNL1        0.0369
      5 C         131.6420  130.2860  129.9120 C.ar    1  UNL1        0.0143
      6 C         131.5910  131.4970  129.2500 C.ar    1  UNL1        0.0578
      7 C         128.2580  125.5000  130.9920 C.3     1  UNL1        0.0600
      8 C         128.0750  124.7340  132.3010 C.3     1  UNL1        0.0175
      9 C         126.9850  126.2830  130.6780 C.3     1  UNL1        0.0175
     10 C         128.5280  124.5070  129.8650 C.3     1  UNL1        0.0175
     11 C         130.4770  132.3050  129.3100 C.ar    1  UNL1        0.0114
     12 C         129.3890  131.8840  130.0440 C.ar    1  UNL1        0.0010
     13 C         129.4140  130.6740  130.7080 C.ar    1  UNL1        0.0029
     14 N         129.4420  126.4010  131.0630 N.3     1  UNL1       -0.2144
     15 O         131.6450  128.1230  131.7840 O.2     1  UNL1       -0.2899
     16 CL        132.9700  132.0230  128.3250 Cl      1  UNL1       -0.0822
@<TRIPOS>BOND
     1     2     1    1
     2     3     2    1
     3     4     3    1
     4     5     4   ar
     5     6     5   ar
     6     7     8    1
     7     9     7    1
     8    10     7    1
     9    11     6   ar
    10    12    11   ar
    11    13     4   ar
    12    13    12   ar
    13    14     7    1
    14    14     2    1
    15    15     3    2
    16    16     6    1
