@<TRIPOS>MOLECULE
8WGR_DSM_A701
 42 44 0 0 0
SMALL
GASTEIGER

@<TRIPOS>ATOM
      1 C         129.0390  125.4300  133.4970 C.3     1  UNL1       -0.0158
      2 N         130.0530  126.1580  134.2760 N.3     1  UNL1       -0.3189
      3 C         130.6300  127.3030  133.5640 C.3     1  UNL1       -0.0030
      4 C         131.4300  126.8900  132.3450 C.3     1  UNL1       -0.0243
      5 C         131.6500  128.0260  131.3560 C.3     1  UNL1        0.0184
      6 N         130.4100  128.7630  131.0730 N.pl3   1  UNL1       -0.2996
      7 C         129.3840  127.9320  130.5050 C.ar    1  UNL1        0.0372
      8 C         129.6840  126.7870  129.7520 C.ar    1  UNL1       -0.0401
      9 C         128.6590  126.0170  129.2420 C.ar    1  UNL1       -0.0600
     10 C         127.3500  126.3620  129.4770 C.ar    1  UNL1       -0.0614
     11 C         127.0570  127.4840  130.2220 C.ar    1  UNL1       -0.0568
     12 C         128.0620  128.2870  130.7580 C.ar    1  UNL1       -0.0257
     13 C         127.8160  129.5280  131.5780 C.3     1  UNL1       -0.0219
     14 C         128.2330  130.8390  130.8660 C.3     1  UNL1       -0.0219
     15 C         129.5890  130.8950  130.1960 C.ar    1  UNL1       -0.0257
     16 C         130.6120  129.9400  130.2690 C.ar    1  UNL1        0.0372
     17 C         129.8230  132.0250  129.4110 C.ar    1  UNL1       -0.0568
     18 C         131.0100  132.2190  128.7400 C.ar    1  UNL1       -0.0614
     19 C         132.0070  131.2790  128.8270 C.ar    1  UNL1       -0.0600
     20 C         131.8240  130.1440  129.5880 C.ar    1  UNL1       -0.0401
     21 H         128.3600  126.0560  133.1790 H       1  UNL1        0.0388
     22 H         129.4600  124.9910  132.7340 H       1  UNL1        0.0388
     23 H         128.6150  124.7570  134.0620 H       1  UNL1        0.0388
     24 H         130.7170  125.5930  134.4910 H       1  UNL1        0.1216
     25 H         131.2130  127.8000  134.1750 H       1  UNL1        0.0424
     26 H         129.9080  127.9050  133.2890 H       1  UNL1        0.0424
     27 H         130.9730  126.1560  131.8910 H       1  UNL1        0.0293
     28 H         132.3020  126.5550  132.6380 H       1  UNL1        0.0293
     29 H         132.3140  128.6530  131.7330 H       1  UNL1        0.0468
     30 H         132.0250  127.6620  130.5180 H       1  UNL1        0.0468
     31 H         130.5770  126.5460  129.5870 H       1  UNL1        0.0636
     32 H         128.8600  125.2500  128.7300 H       1  UNL1        0.0618
     33 H         126.6510  125.8330  129.1250 H       1  UNL1        0.0618
     34 H         126.1560  127.7130  130.3790 H       1  UNL1        0.0621
     35 H         126.8600  129.5770  131.7960 H       1  UNL1        0.0317
     36 H         128.3140  129.4540  132.4230 H       1  UNL1        0.0317
     37 H         127.5510  131.0470  130.1900 H       1  UNL1        0.0317
     38 H         128.1890  131.5680  131.5230 H       1  UNL1        0.0317
     39 H         129.1450  132.6780  129.3450 H       1  UNL1        0.0621
     40 H         131.1360  132.9960  128.2190 H       1  UNL1        0.0618
     41 H         132.8210  131.4090  128.3660 H       1  UNL1        0.0618
     42 H         132.5110  129.5060  129.6380 H       1  UNL1        0.0636
@<TRIPOS>BOND
     1     2     1    1
     2     3     2    1
     3     4     3    1
     4     5     4    1
     5     6     5    1
     6     7     6    1
     7     8     7   ar
     8     9     8   ar
     9    10     9   ar
    10    11    10   ar
    11    12    11   ar
    12    12     7   ar
    13    13    12    1
    14    14    13    1
    15    15    14    1
    16    16     6    1
    17    16    15   ar
    18    17    15   ar
    19    18    17   ar
    20    19    18   ar
    21    20    16   ar
    22    20    19   ar
    23     1    21    1
    24    22     1    1
    25    23     1    1
    26    24     2    1
    27     3    25    1
    28    26     3    1
    29     4    27    1
    30    28     4    1
    31     5    29    1
    32    30     5    1
    33    31     8    1
    34    32     9    1
    35    33    10    1
    36    34    11    1
    37    13    35    1
    38    36    13    1
    39    14    37    1
    40    38    14    1
    41    39    17    1
    42    40    18    1
    43    41    19    1
    44    42    20    1
