@<TRIPOS>MOLECULE
8WTV_E5E_A704
 12 12 0 0 0
SMALL
GASTEIGER

@<TRIPOS>ATOM
      1 O         128.7730  132.3000  129.4860 O.3     1  UNL1       -0.2832
      2 C         129.8310  131.4370  129.7840 C.ar    1  UNL1        0.2340
      3 C         129.6190  130.3400  130.5980 C.ar    1  UNL1        0.0438
      4 C         131.0860  131.6860  129.2590 C.ar    1  UNL1        0.2342
      5 O         131.2830  132.7990  128.4360 O.3     1  UNL1       -0.2831
      6 C         132.1400  130.8370  129.5470 C.ar    1  UNL1        0.0452
      7 C         131.9280  129.7380  130.3630 C.ar    1  UNL1        0.0019
      8 C         130.6710  129.4890  130.8880 C.ar    1  UNL1        0.0176
      9 C         130.4400  128.2750  131.7860 C.3     1  UNL1        0.2480
     10 O         130.5100  128.6650  133.1290 O.3     1  UNL1       -0.2112
     11 C         129.0610  127.6870  131.4980 C.3     1  UNL1        0.3527
     12 N         129.1530  126.6810  130.4550 N.4     1  UNL1        0.6001
@<TRIPOS>UNITY_ATOM_ATTR
12 1
charge 1
@<TRIPOS>BOND
     1     2     1    1
     2     3     2   ar
     3     4     2   ar
     4     5     4    1
     5     6     4   ar
     6     7     6   ar
     7     8     3   ar
     8     8     7   ar
     9     9     8    1
    10     9    10    1
    11    11     9    1
    12    12    11    1
