@<TRIPOS>MOLECULE
8WTX_Y60_A701
 16 16 0 0 0
SMALL
GASTEIGER

@<TRIPOS>ATOM
      1 C         127.2580  127.7230  132.3140 C.3     1  UNL1        0.0271
      2 C         128.5250  127.2050  131.6090 C.3     1  UNL1        0.1341
      3 C         129.6800  128.1850  131.8450 C.2     1  UNL1        0.1887
      4 C         129.8710  129.4410  130.9740 C.ar    1  UNL1        0.0369
      5 C         131.1020  129.6910  130.3820 C.ar    1  UNL1        0.0143
      6 C         131.2850  130.8320  129.5950 C.ar    1  UNL1        0.0578
      7 C         128.2230  125.5970  129.7980 C.3     1  UNL1        0.0600
      8 C         129.2300  124.7560  130.6060 C.3     1  UNL1        0.0175
      9 C         128.5650  125.4600  128.2860 C.3     1  UNL1        0.0175
     10 C         126.7940  125.0330  130.0400 C.3     1  UNL1        0.0175
     11 C         130.2370  131.7200  129.4010 C.ar    1  UNL1        0.0114
     12 C         129.0070  131.4770  129.9890 C.ar    1  UNL1        0.0010
     13 C         128.8250  130.3360  130.7780 C.ar    1  UNL1        0.0029
     14 N         128.2870  127.0340  130.1820 N.3     1  UNL1       -0.2144
     15 O         130.4460  127.9690  132.7280 O.2     1  UNL1       -0.2899
     16 CL        132.8720  131.1510  128.8300 Cl      1  UNL1       -0.0822
@<TRIPOS>BOND
     1     2     1    1
     2     3     2    1
     3     4     3    1
     4     5     4   ar
     5     6     5   ar
     6     7     8    1
     7     9     7    1
     8    10     7    1
     9    11     6   ar
    10    12    11   ar
    11    13     4   ar
    12    13    12   ar
    13    14     7    1
    14    14     2    1
    15    15     3    2
    16    16     6    1
