@<TRIPOS>MOLECULE
8XB3_YMN_A701
 12 12 0 0 0
SMALL
GASTEIGER

@<TRIPOS>ATOM
      1  C14      130.3630  129.4630  130.6710 C.ar  701  YMN701      0.0213
      2  C16      130.4870  128.0610  131.2550 C.3   701  YMN701      0.2469
      3  C22      131.2040  131.1870  129.2400 C.ar  701  YMN701      0.0299
      4  C24      129.1980  131.5470  130.4970 C.ar  701  YMN701      0.0002
      5  C26      130.1470  132.0020  129.6020 C.ar  701  YMN701      0.0058
      6  C28      129.2080  126.7720  132.7140 C.cat 701  YMN701      0.5349
      7  C18      131.3110  129.9180  129.7750 C.ar  701  YMN701      0.0050
      8  C20      129.3060  130.2750  131.0320 C.ar  701  YMN701     -0.0008
      9  I01      132.6530  131.8720  127.8730 I     701  YMN701     -0.0425
     10  N08      129.5850  127.9160  132.3810 N.pl3 701  YMN701     -0.0815
     11  N10      128.3100  126.6050  133.8360 N.pl3 701  YMN701      0.1354
     12  N11      129.6690  125.6080  131.9800 N.pl3 701  YMN701      0.1354
@<TRIPOS>BOND
     1     9     3    1
     2     3     5   ar
     3     3     7   ar
     4     5     4   ar
     5     7     1   ar
     6     4     8   ar
     7     1     8   ar
     8     1     2    1
     9     2    10    1
    10    12     6    1
    11    10     6    2
    12     6    11    1
