@<TRIPOS>MOLECULE
8Y91_A1LX5_D703
 18 20 0 0 0
SMALL
GASTEIGER

@<TRIPOS>ATOM
      1 C         131.7030  131.5700  136.4740 C.ar    1  UNL1        0.0011
      2 N         128.9310  129.5120  137.7530 N.pl3   1  UNL1       -0.1284
      3 C         131.3850  129.6800  132.4960 C.ar    1  UNL1       -0.0171
      4 C         129.7860  131.0580  131.3030 C.ar    1  UNL1       -0.0003
      5 C         131.9210  130.5520  130.2880 C.ar    1  UNL1       -0.0003
      6 C         129.0840  126.4620  133.9150 C.3     1  UNL1        0.0899
      7 C         131.0150  127.4650  133.6550 C.3     1  UNL1        0.0811
      8 C         131.7780  128.8440  133.7590 C.3     1  UNL1        0.0603
      9 C         131.3650  129.6360  135.0060 C.ar    1  UNL1       -0.0184
     10 C         130.3690  129.2110  135.7690 C.ar    1  UNL1        0.0070
     11 C         129.6220  127.9430  135.4320 C.3     1  UNL1        0.1002
     12 C         129.9930  129.9650  136.9400 C.ar    1  UNL1        0.0861
     13 C         130.6720  131.1330  137.2670 C.ar    1  UNL1        0.0178
     14 C         132.0680  130.8420  135.3480 C.ar    1  UNL1       -0.0041
     15 C         130.1490  130.3010  132.4410 C.ar    1  UNL1       -0.0039
     16 C         130.6740  131.1780  130.2340 C.ar    1  UNL1       -0.0000
     17 C         132.2820  129.8020  131.4170 C.ar    1  UNL1       -0.0039
     18 N         129.7060  127.5750  134.1090 N.3     1  UNL1       -0.2671
@<TRIPOS>BOND
     1     8     7    1
     2     8     3    1
     3     9     8    1
     4    10     9   ar
     5    11    10    1
     6    12    10   ar
     7    12     2    1
     8    13    12   ar
     9    13     1   ar
    10    14     9   ar
    11    14     1   ar
    12    15     4   ar
    13    15     3   ar
    14    16     4   ar
    15    16     5   ar
    16    17     5   ar
    17    17     3   ar
    18    18    11    1
    19    18     6    1
    20    18     7    1
