@<TRIPOS>MOLECULE
8Y92_A1LX4_B701
 19 20 0 0 0
SMALL
GASTEIGER

@<TRIPOS>ATOM
      1 C         130.8530  127.7480  134.0830 C.3     1  UNL1        0.0670
      2 N         129.2960  125.9830  134.5520 N.3     1  UNL1       -0.2164
      3 C         129.9640  125.7780  135.8110 C.3     1  UNL1        0.1075
      4 C         129.7390  130.8750  134.9700 C.ar    1  UNL1       -0.0008
      5 C         130.7180  131.9230  136.8710 C.ar    1  UNL1       -0.0000
      6 C         128.1870  131.0410  131.2390 C.3     1  UNL1        0.0342
      7 C         129.6550  131.0290  130.8680 C.ar    1  UNL1        0.0121
      8 C         130.0970  131.8290  129.8440 C.ar    1  UNL1       -0.0013
      9 C         131.4260  131.8200  129.4980 C.ar    1  UNL1       -0.0001
     10 C         132.3160  131.0190  130.1790 C.ar    1  UNL1        0.0031
     11 C         131.8650  130.2160  131.2060 C.ar    1  UNL1        0.0366
     12 C         130.5300  130.2210  131.5500 C.ar    1  UNL1        0.1348
     13 O         130.0720  129.4210  132.5950 O.3     1  UNL1       -0.4750
     14 C         131.0290  129.1730  133.5770 C.3     1  UNL1        0.1896
     15 C         129.3910  127.3840  134.2560 C.3     1  UNL1        0.0928
     16 C         130.8980  130.1540  134.7440 C.ar    1  UNL1        0.0172
     17 C         129.6450  131.7550  136.0270 C.ar    1  UNL1       -0.0002
     18 C         131.8740  131.2070  136.6480 C.ar    1  UNL1       -0.0002
     19 C         131.9690  130.3290  135.5890 C.ar    1  UNL1       -0.0008
@<TRIPOS>BOND
     1     3     2    1
     2     7     6    1
     3     8     7   ar
     4     9     8   ar
     5    10     9   ar
     6    11    10   ar
     7    12     7   ar
     8    12    11   ar
     9    13    12    1
    10    14    13    1
    11    14     1    1
    12    15     2    1
    13    15     1    1
    14    16     4   ar
    15    16    14    1
    16    17     4   ar
    17    17     5   ar
    18    18     5   ar
    19    19    16   ar
    20    19    18   ar
