@<TRIPOS>MOLECULE
8Y93_TP0_A701
 21 23 0 0 0
SMALL
GASTEIGER

@<TRIPOS>ATOM
      1 N         129.4370  126.0470  133.6750 N.3     1  UNL1       -0.2700
      2 C         130.4080  130.2820  131.9360 C.2     1  UNL1       -0.0048
      3 C         128.3190  131.5540  132.5520 C.ar    1  UNL1       -0.0218
      4 C         130.1540  131.9050  129.9350 C.ar    1  UNL1       -0.0218
      5 C         129.4980  131.0180  132.9590 C.ar    1  UNL1       -0.0043
      6 C         130.8830  131.0290  130.6860 C.ar    1  UNL1       -0.0043
      7 C         130.9170  129.0410  132.0430 C.2     1  UNL1       -0.0247
      8 C         127.4630  132.2620  133.4210 C.ar    1  UNL1       -0.0043
      9 C         130.7730  132.5360  128.8330 C.ar    1  UNL1       -0.0043
     10 C         129.9050  131.1980  134.3070 C.ar    1  UNL1       -0.0003
     11 C         132.2280  130.7790  130.3500 C.ar    1  UNL1       -0.0003
     12 C         129.3080  127.3490  133.0840 C.3     1  UNL1        0.0769
     13 C         127.8550  132.4210  134.7420 C.ar    1  UNL1       -0.0003
     14 C         132.0840  132.2740  128.4900 C.ar    1  UNL1       -0.0003
     15 C         129.0720  131.8880  135.1840 C.ar    1  UNL1       -0.0000
     16 C         132.8170  131.3950  129.2600 C.ar    1  UNL1       -0.0000
     17 C         128.9490  126.0730  135.0340 C.3     1  UNL1        0.0897
     18 C         130.8450  125.9980  133.7960 C.3     1  UNL1        0.0897
     19 C         127.8400  131.4020  131.0970 C.3     1  UNL1        0.0310
     20 C         128.6830  132.2920  130.1920 C.3     1  UNL1        0.0310
     21 C         130.6780  128.0280  133.1840 C.3     1  UNL1        0.0433
@<TRIPOS>BOND
     1     5     2    1
     2     5     3   ar
     3     6     2    1
     4     6     4   ar
     5     7     2    2
     6     8     3   ar
     7     9     4   ar
     8    10     5   ar
     9    11     6   ar
    10    12     1    1
    11    13     8   ar
    12    14     9   ar
    13    15    13   ar
    14    15    10   ar
    15    16    11   ar
    16    16    14   ar
    17    17     1    1
    18    18     1    1
    19    19     3    1
    20    20     4    1
    21    20    19    1
    22    21    12    1
    23    21     7    1
