@<TRIPOS>MOLECULE
8Y95_E5E_D701
 12 12 0 0 0
SMALL
GASTEIGER

@<TRIPOS>ATOM
      1 O         132.9260  130.6030  128.5020 O.3     1  UNL1       -0.2832
      2 C         131.8410  130.7850  129.3700 C.ar    1  UNL1        0.2340
      3 C         131.4300  129.7780  130.2270 C.ar    1  UNL1        0.0438
      4 C         131.1790  131.9840  129.3580 C.ar    1  UNL1        0.2342
      5 O         131.5930  132.9950  128.4920 O.3     1  UNL1       -0.2831
      6 C         130.1120  132.1850  130.1970 C.ar    1  UNL1        0.0452
      7 C         129.7040  131.1840  131.0530 C.ar    1  UNL1        0.0019
      8 C         130.3600  129.9800  131.0720 C.ar    1  UNL1        0.0176
      9 C         129.8860  128.8950  132.0260 C.3     1  UNL1        0.2480
     10 O         128.9880  128.0620  131.3650 O.3     1  UNL1       -0.2112
     11 C         131.0550  128.0450  132.4920 C.3     1  UNL1        0.3527
     12 N         130.5510  126.8830  133.1960 N.4     1  UNL1        0.6001
@<TRIPOS>UNITY_ATOM_ATTR
12 1
charge 1
@<TRIPOS>BOND
     1     2     1    1
     2     3     2   ar
     3     4     2   ar
     4     5     4    1
     5     6     4   ar
     6     7     6   ar
     7     8     7   ar
     8     8     3   ar
     9     9     8    1
    10     9    10    1
    11    11     9    1
    12    12    11    1
