@<TRIPOS>MOLECULE
8YR2_41U_A701
 20 21 0 0 0
SMALL
GASTEIGER

@<TRIPOS>ATOM
      1 C         128.7060  126.0610  135.1330 C.3     1  UNL1        0.1075
      2 O         128.3260  130.7490  131.4250 O.3     1  UNL1       -0.4684
      3 C         130.3600  126.6190  133.5520 C.3     1  UNL1        0.0928
      4 C         130.5680  127.9280  134.2850 C.3     1  UNL1        0.0670
      5 C         129.2480  131.0830  134.8810 C.ar    1  UNL1       -0.0008
      6 C         129.4390  132.1190  135.7690 C.ar    1  UNL1       -0.0002
      7 C         130.6950  132.3640  136.2720 C.ar    1  UNL1       -0.0000
      8 C         131.7600  131.5780  135.8890 C.ar    1  UNL1       -0.0002
      9 O         130.8280  129.2280  132.3340 O.3     1  UNL1       -0.4717
     10 C         130.9760  132.2880  129.4860 C.ar    1  UNL1        0.0033
     11 C         132.0870  131.6060  129.8980 C.ar    1  UNL1        0.0033
     12 C         131.9670  130.6140  130.8360 C.ar    1  UNL1        0.0401
     13 N         129.9230  125.6170  134.4960 N.3     1  UNL1       -0.2164
     14 C         130.7580  130.2810  131.3970 C.ar    1  UNL1        0.1725
     15 C         129.7550  131.9660  130.0270 C.ar    1  UNL1        0.0400
     16 C         131.5730  130.5420  135.0010 C.ar    1  UNL1       -0.0008
     17 C         130.3190  130.3060  134.4870 C.ar    1  UNL1        0.0172
     18 C         130.0990  129.1540  133.5230 C.3     1  UNL1        0.1897
     19 C         127.4250  131.7470  131.0690 C.3     1  UNL1        0.2526
     20 C         129.6250  130.9720  130.9680 C.ar    1  UNL1        0.1724
@<TRIPOS>BOND
     1     4     3    1
     2     6     5   ar
     3     7     6   ar
     4     8     7   ar
     5    11    10   ar
     6    12    11   ar
     7    13     3    1
     8    13     1    1
     9    14    12   ar
    10    14     9    1
    11    15    10   ar
    12    16     8   ar
    13    17     5   ar
    14    17    16   ar
    15    18    17    1
    16    18     4    1
    17    18     9    1
    18    19     2    1
    19    20    14   ar
    20    20     2    1
    21    20    15   ar
