@<TRIPOS>MOLECULE
8YR2_41U_B701
 20 21 0 0 0
SMALL
GASTEIGER

@<TRIPOS>ATOM
      1 C         128.8110  126.1090  134.5340 C.3     1  UNL1        0.1075
      2 O         128.5200  130.9130  130.9700 O.3     1  UNL1       -0.4684
      3 C         130.4640  126.6740  132.9540 C.3     1  UNL1        0.0928
      4 C         130.7190  127.9560  133.7220 C.3     1  UNL1        0.0670
      5 C         129.4670  131.1170  134.4270 C.ar    1  UNL1       -0.0008
      6 C         129.6830  132.1200  135.3450 C.ar    1  UNL1       -0.0002
      7 C         130.9480  132.3220  135.8480 C.ar    1  UNL1       -0.0000
      8 C         131.9950  131.5280  135.4340 C.ar    1  UNL1       -0.0002
      9 O         130.9940  129.3100  131.8120 O.3     1  UNL1       -0.4717
     10 C         131.1900  132.4490  129.0550 C.ar    1  UNL1        0.0033
     11 C         132.2880  131.7300  129.4370 C.ar    1  UNL1        0.0033
     12 C         132.1520  130.7140  130.3480 C.ar    1  UNL1        0.0401
     13 N         130.0140  125.6560  133.8760 N.3     1  UNL1       -0.2164
     14 C         130.9400  130.3910  130.9080 C.ar    1  UNL1        0.1725
     15 C         129.9650  132.1380  129.5960 C.ar    1  UNL1        0.0400
     16 C         131.7820  130.5240  134.5150 C.ar    1  UNL1       -0.0008
     17 C         130.5200  130.3300  134.0020 C.ar    1  UNL1        0.0172
     18 C         130.2690  129.2140  133.0030 C.3     1  UNL1        0.1897
     19 C         127.6390  131.9430  130.6510 C.3     1  UNL1        0.2526
     20 C         129.8210  131.1220  130.5090 C.ar    1  UNL1        0.1724
@<TRIPOS>BOND
     1     4     3    1
     2     6     5   ar
     3     7     6   ar
     4     8     7   ar
     5    11    10   ar
     6    12    11   ar
     7    13     3    1
     8    13     1    1
     9    14    12   ar
    10    14     9    1
    11    15    10   ar
    12    16     8   ar
    13    17     5   ar
    14    17    16   ar
    15    18    17    1
    16    18     4    1
    17    18     9    1
    18    19     2    1
    19    20    15   ar
    20    20     2    1
    21    20    14   ar
