@<TRIPOS>MOLECULE
8Z1L_A1LX4_A702
 19 20 0 0 0
SMALL
GASTEIGER

@<TRIPOS>ATOM
      1 C         130.4890  127.5850  132.9820 C.3     1  UNL1        0.0670
      2 N         130.2270  126.1450  134.8720 N.3     1  UNL1       -0.2164
      3 C         129.6680  125.0770  134.0860 C.3     1  UNL1        0.1075
      4 C         129.5570  130.5030  134.6440 C.ar    1  UNL1       -0.0008
      5 C         130.9540  131.2750  136.5220 C.ar    1  UNL1       -0.0000
      6 C         127.9110  130.9100  130.4250 C.3     1  UNL1        0.0342
      7 C         129.3860  131.2160  130.2530 C.ar    1  UNL1        0.0121
      8 C         129.8300  132.3070  129.2940 C.ar    1  UNL1       -0.0013
      9 C         131.0980  132.5780  129.1430 C.ar    1  UNL1       -0.0001
     10 C         132.1080  131.7760  129.9400 C.ar    1  UNL1        0.0031
     11 C         131.7180  130.8370  130.7660 C.ar    1  UNL1        0.0366
     12 C         130.2500  130.5290  130.9330 C.ar    1  UNL1        0.1348
     13 O         129.8110  129.5380  131.8030 O.3     1  UNL1       -0.4750
     14 C         130.7490  129.0580  132.7210 C.3     1  UNL1        0.1896
     15 C         129.8020  127.4090  134.3220 C.3     1  UNL1        0.0928
     16 C         130.7830  129.8310  134.0490 C.ar    1  UNL1        0.0172
     17 C         129.6410  131.1610  135.7760 C.ar    1  UNL1       -0.0002
     18 C         132.0140  130.7020  136.0190 C.ar    1  UNL1       -0.0002
     19 C         131.9160  129.9340  134.7060 C.ar    1  UNL1       -0.0008
@<TRIPOS>BOND
     1     3     2    1
     2     7     6    1
     3     8     7   ar
     4     9     8   ar
     5    10     9   ar
     6    11    10   ar
     7    12     7   ar
     8    12    11   ar
     9    13    12    1
    10    14    13    1
    11    14     1    1
    12    15     2    1
    13    15     1    1
    14    16    14    1
    15    16     4   ar
    16    17     4   ar
    17    17     5   ar
    18    18     5   ar
    19    19    16   ar
    20    19    18   ar
