@<TRIPOS>MOLECULE
8ZOY_LNR_A701
 23 23 0 0 0
SMALL
GASTEIGER

@<TRIPOS>ATOM
      1  OAC      132.7980  131.3820  128.7940 O.3   701  LNR701     -0.5033
      2  CAJ      131.5460  131.2020  129.3800 C.ar  701  LNR701      0.1586
      3  CAG      131.2710  129.9770  130.2450 C.ar  701  LNR701     -0.0109
      4  CAI      130.6030  132.0980  129.1860 C.ar  701  LNR701      0.1582
      5  OAB      130.8360  133.2240  128.3920 O.3   701  LNR701     -0.5033
      6  CAE      129.2330  131.9110  129.8150 C.ar  701  LNR701     -0.0162
      7  CAF      128.9910  130.8630  130.5590 C.ar  701  LNR701     -0.0524
      8  CAK      130.0810  129.8260  130.7890 C.ar  701  LNR701     -0.0143
      9  CAL      129.7570  128.6240  131.6630 C.3   701  LNR701      0.0925
     10  OAD      130.4160  127.4980  131.1670 O.3   701  LNR701     -0.3859
     11  CAH      130.2150  128.9150  133.0900 C.3   701  LNR701      0.0235
     12  NAA      130.5670  127.6710  133.7450 N.3   701  LNR701     -0.3274
     13 HOAC      132.7560  132.0940  128.1770 H     701  LNR701      0.2923
     14  HAG      132.0480  129.2400  130.4100 H     701  LNR701      0.0659
     15 HOAB      130.0330  133.7090  128.2900 H     701  LNR701      0.2923
     16  HAE      128.4590  132.6460  129.6500 H     701  LNR701      0.0655
     17  HAF      128.0160  130.7320  131.0100 H     701  LNR701      0.0622
     18  HAL      128.6880  128.4510  131.6550 H     701  LNR701      0.0656
     19 HOAD      129.9480  126.7220  131.4270 H     701  LNR701      0.2103
     20  HAH      131.0800  129.5670  133.0660 H     701  LNR701      0.0451
     21 HAHA      129.4150  129.3980  133.6360 H     701  LNR701      0.0451
     22 HNAA      131.2510  127.8520  134.4530 H     701  LNR701      0.1183
     23 HNAB      130.9490  127.0360  133.0730 H     701  LNR701      0.1183
@<TRIPOS>BOND
     1    13     1    1
     2    15     5    1
     3     5     4    1
     4     1     2    1
     5     4     2   ar
     6     4     6   ar
     7     2     3   ar
     8    16     6    1
     9     6     7   ar
    10     3    14    1
    11     3     8   ar
    12     7     8   ar
    13     7    17    1
    14     8     9    1
    15    10    19    1
    16    10     9    1
    17    18     9    1
    18     9    11    1
    19    20    11    1
    20    23    12    1
    21    11    21    1
    22    11    12    1
    23    12    22    1
