@<TRIPOS>MOLECULE
8ZPB_LNR_A701
 23 23 0 0 0
SMALL
GASTEIGER

@<TRIPOS>ATOM
      1  OAC      133.0430  131.6380  128.7390 O.3   701  LNR701     -0.5033
      2  CAJ      131.8800  131.3190  129.4470 C.ar  701  LNR701      0.1586
      3  CAG      131.8890  130.1540  130.4290 C.ar  701  LNR701     -0.0109
      4  CAI      130.7820  132.0260  129.2740 C.ar  701  LNR701      0.1582
      5  OAB      130.7620  133.0970  128.3740 O.3   701  LNR701     -0.5033
      6  CAE      129.5170  131.6740  130.0490 C.ar  701  LNR701     -0.0162
      7  CAF      129.5230  130.6690  130.8950 C.ar  701  LNR701     -0.0524
      8  CAK      130.7960  129.8550  131.0980 C.ar  701  LNR701     -0.0143
      9  CAL      130.7970  128.6920  132.0800 C.3   701  LNR701      0.0925
     10  OAD      131.8950  127.8760  131.8130 O.3   701  LNR701     -0.3859
     11  CAH      130.9060  129.2170  133.5060 C.3   701  LNR701      0.0235
     12  NAA      130.7190  128.1190  134.4330 N.3   701  LNR701     -0.3274
     13 HOAC      132.8620  132.3390  128.1360 H     701  LNR701      0.2923
     14  HAG      132.7920  129.5750  130.5760 H     701  LNR701      0.0659
     15 HOAB      129.8680  133.3270  128.1790 H     701  LNR701      0.2923
     16  HAE      128.6150  132.2520  129.9040 H     701  LNR701      0.0655
     17  HAF      128.6260  130.4200  131.4470 H     701  LNR701      0.0622
     18  HAL      129.8830  128.1210  131.9710 H     701  LNR701      0.0656
     19 HOAD      131.7580  127.0280  132.2040 H     701  LNR701      0.2103
     20  HAH      131.8860  129.6540  133.6560 H     701  LNR701      0.0451
     21 HAHA      130.1450  129.9680  133.6750 H     701  LNR701      0.0451
     22 HNAA      130.4100  127.3070  133.9360 H     701  LNR701      0.1183
     23 HNAB      130.0370  128.3760  135.1170 H     701  LNR701      0.1183
@<TRIPOS>BOND
     1    13     1    1
     2    15     5    1
     3     5     4    1
     4     1     2    1
     5     4     2   ar
     6     4     6   ar
     7     2     3   ar
     8    16     6    1
     9     6     7   ar
    10     3    14    1
    11     3     8   ar
    12     7     8   ar
    13     7    17    1
    14     8     9    1
    15    10     9    1
    16    10    19    1
    17    18     9    1
    18     9    11    1
    19    11    20    1
    20    11    21    1
    21    11    12    1
    22    22    12    1
    23    12    23    1
