@<TRIPOS>MOLECULE
2IOG_IOG_A600
 39 43 0 0 0
SMALL
GASTEIGER

@<TRIPOS>ATOM
      1 C          22.2320  -11.7360    5.7490 C.ar    1  UNL1       -0.0219
      2 C          20.8910  -11.9940    5.4440 C.ar    1  UNL1       -0.0010
      3 C          20.4040  -11.7600    4.1530 C.ar    1  UNL1        0.0417
      4 C          21.2960  -11.3040    3.1720 C.ar    1  UNL1        0.1957
      5 O          20.7640  -11.0280    1.9570 O.3     1  UNL1       -0.2866
      6 C          22.6180  -11.0000    3.4760 C.ar    1  UNL1        0.0417
      7 C          23.1030  -11.2340    4.7810 C.ar    1  UNL1       -0.0010
      8 C          22.6640  -12.0220    7.1680 C.3     1  UNL1        0.0281
      9 C          22.8830  -13.5460    7.3470 C.3     1  UNL1        0.0263
     10 C          23.1050  -13.8540    8.8490 C.3     1  UNL1        0.0957
     11 C          23.4390  -15.3440    8.9940 C.3     1  UNL1        0.0234
     12 N          24.1600  -12.9360    9.3580 N.am    1  UNL1       -0.2069
     13 C          23.8470  -12.1650   10.4140 C.2     1  UNL1        0.2458
     14 O          22.7240  -12.2420   10.9650 O.2     1  UNL1       -0.2730
     15 C          24.8380  -11.2060   10.9390 C.3     1  UNL1        0.1146
     16 C          26.1140  -11.2070   10.2000 C.ar    1  UNL1        0.0061
     17 C          27.3960  -11.9640   10.2540 C.ar    1  UNL1        0.0778
     18 N          28.2700  -11.4110    9.2060 N.ar    1  UNL1       -0.2456
     19 C          27.5930  -10.4570    8.5300 C.ar    1  UNL1        0.0840
     20 C          28.0610   -9.6810    7.4530 C.ar    1  UNL1        0.0560
     21 C          27.2420   -8.6140    7.0110 C.ar    1  UNL1        0.1401
     22 C          25.9200   -8.5270    7.4440 C.ar    1  UNL1        0.0370
     23 C          25.4210   -9.4080    8.4290 C.ar    1  UNL1        0.0044
     24 C          26.3080  -10.3360    9.0130 C.ar    1  UNL1        0.0158
     25 C          27.7800  -13.0170   11.2560 C.ar    1  UNL1        0.0174
     26 C          26.8230  -13.8610   11.8430 C.ar    1  UNL1        0.0015
     27 C          27.2380  -14.8540   12.7680 C.ar    1  UNL1        0.0000
     28 C          28.5780  -14.9630   13.1480 C.ar    1  UNL1        0.0000
     29 C          29.5140  -14.1320   12.5700 C.ar    1  UNL1        0.0000
     30 C          29.1260  -13.1550   11.6040 C.ar    1  UNL1        0.0015
     31 O          27.6150   -7.8490    5.9640 O.3     1  UNL1       -0.4739
     32 C          28.7600   -6.9820    5.9640 C.3     1  UNL1        0.2226
     33 C          28.6700   -5.7600    6.8810 C.3     1  UNL1        0.1200
     34 N          28.1650   -4.5710    6.1280 N.3     1  UNL1       -0.2696
     35 C          28.0290   -3.5510    7.2030 C.3     1  UNL1        0.0722
     36 C          27.2670   -2.3190    6.6870 C.3     1  UNL1        0.0174
     37 C          25.8780   -2.7330    6.1900 C.3     1  UNL1        0.0029
     38 C          26.1020   -3.7010    5.0180 C.3     1  UNL1        0.0174
     39 C          26.8530   -4.9230    5.5640 C.3     1  UNL1        0.0722
@<TRIPOS>BOND
     1     2     1   ar
     2     3     2   ar
     3     4     3   ar
     4     5     4    1
     5     6     4   ar
     6     7     6   ar
     7     7     1   ar
     8     8     1    1
     9     9     8    1
    10    10     9    1
    11    10    11    1
    12    12    10    1
    13    13    12   am
    14    14    13    2
    15    15    13    1
    16    16    15    1
    17    17    16   ar
    18    18    17   ar
    19    19    18   ar
    20    20    19   ar
    21    21    20   ar
    22    22    21   ar
    23    23    22   ar
    24    24    16   ar
    25    24    23   ar
    26    24    19   ar
    27    25    17    1
    28    26    25   ar
    29    27    26   ar
    30    28    27   ar
    31    29    28   ar
    32    30    29   ar
    33    30    25   ar
    34    31    21    1
    35    32    31    1
    36    33    32    1
    37    34    33    1
    38    35    34    1
    39    36    35    1
    40    37    36    1
    41    38    37    1
    42    39    38    1
    43    39    34    1
