@<TRIPOS>MOLECULE
5KCT_OB7_A601
 34 38 0 0 0
SMALL
GASTEIGER

@<TRIPOS>ATOM
      1 C          21.8360  -11.0600    3.2790 C.ar    1  UNL1        0.1957
      2 C          23.1630  -10.9140    3.3150 C.ar    1  UNL1        0.0420
      3 C          23.8780  -11.2120    4.4000 C.ar    1  UNL1        0.0030
      4 C          23.3630  -11.6870    5.5340 C.ar    1  UNL1       -0.0017
      5 C          22.0350  -11.8440    5.4790 C.ar    1  UNL1        0.0030
      6 C          21.2930  -11.5480    4.3960 C.ar    1  UNL1        0.0420
      7 O          21.1050  -10.7850    2.2000 O.3     1  UNL1       -0.2866
      8 C          24.1850  -11.9850    6.5960 C.2     1  UNL1        0.0046
      9 C          25.3690  -11.5060    7.0380 C.2     1  UNL1        0.0030
     10 C          25.6580  -12.3510    8.2720 C.3     1  UNL1        0.1394
     11 C          24.7480  -11.8790    9.3840 C.3     1  UNL1        0.0625
     12 C          23.4270  -12.4130    8.8730 C.3     1  UNL1        0.1829
     13 C          23.8910  -13.1010    7.5960 C.3     1  UNL1        0.1612
     14 C          26.1910  -10.4930    6.7810 C.ar    1  UNL1       -0.0017
     15 C          25.7310   -9.2480    6.5960 C.ar    1  UNL1        0.0030
     16 C          26.5390   -8.2260    6.3950 C.ar    1  UNL1        0.0420
     17 C          27.8440   -8.4110    6.4000 C.ar    1  UNL1        0.1957
     18 C          28.2940   -9.6130    6.6220 C.ar    1  UNL1        0.0420
     19 C          27.4970  -10.6270    6.8230 C.ar    1  UNL1        0.0030
     20 O          28.7070   -7.4350    6.1920 O.3     1  UNL1       -0.2866
     21 O          25.1310  -13.5650    7.9520 O.3     1  UNL1       -0.3481
     22 S          22.7050  -13.4870    9.9930 S.O2    1  UNL1        0.0580
     23 N          23.5190  -14.9710   10.1970 N.pl3   1  UNL1       -0.1944
     24 C          24.5250  -15.1470   10.9470 C.ar    1  UNL1        0.0685
     25 C          25.7200  -15.4580   10.4420 C.ar    1  UNL1        0.0170
     26 C          26.8340  -15.6550   11.1620 C.ar    1  UNL1        0.0127
     27 C          26.8180  -15.5320   12.4890 C.ar    1  UNL1        0.0578
     28 C          25.6380  -15.2440   13.0300 C.ar    1  UNL1        0.0127
     29 C          24.5510  -15.0430   12.2780 C.ar    1  UNL1        0.0170
     30 CL         28.2180  -15.7540   13.5030 Cl      1  UNL1       -0.0822
     31 C          23.1050  -16.0390    9.2790 C.3     1  UNL1        0.1155
     32 C          22.8500  -17.4300    9.8280 C.3     1  UNL1        0.0252
     33 O          21.5030  -13.8490    9.3990 O.2     1  UNL1       -0.1542
     34 O          22.8240  -13.0220   11.2960 O.2     1  UNL1       -0.1542
@<TRIPOS>BOND
     1     2     1   ar
     2     3     2   ar
     3     4     3   ar
     4     5     4   ar
     5     6     1   ar
     6     6     5   ar
     7     7     1    1
     8     8     4    1
     9     9     8    2
    10    10     9    1
    11    10    11    1
    12    12    11    1
    13    13    12    1
    14    13     8    1
    15    14     9    1
    16    15    14   ar
    17    16    15   ar
    18    17    16   ar
    19    18    17   ar
    20    19    14   ar
    21    19    18   ar
    22    20    17    1
    23    21    13    1
    24    21    10    1
    25    22    12    1
    26    22    23    1
    27    24    23    1
    28    25    24   ar
    29    26    25   ar
    30    27    26   ar
    31    28    27   ar
    32    29    28   ar
    33    29    24   ar
    34    30    27    1
    35    31    23    1
    36    32    31    1
    37    33    22    2
    38    34    22    2
