@<TRIPOS>MOLECULE
5W9D_9XY_A601
 28 30 0 0 0
SMALL
GASTEIGER

@<TRIPOS>ATOM
      1 C          26.7680   -4.0200    5.2280 C.3     1  UNL1        0.1076
      2 N          28.2190   -4.3030    5.5690 N.3     1  UNL1       -0.2126
      3 C          28.4070   -5.8080    5.6400 C.3     1  UNL1        0.1359
      4 C          27.5270   -6.4160    6.7460 C.3     1  UNL1        0.2241
      5 O          27.8690   -7.8060    6.8910 O.3     1  UNL1       -0.4739
      6 C          26.9260   -8.7630    6.8270 C.ar    1  UNL1        0.1386
      7 C          25.5960   -8.4540    6.6670 C.ar    1  UNL1        0.0369
      8 C          24.6830   -9.4720    6.4930 C.ar    1  UNL1        0.0031
      9 C          27.3430  -10.0780    6.9690 C.ar    1  UNL1        0.0369
     10 C          26.4000  -11.0830    6.8760 C.ar    1  UNL1        0.0031
     11 C          25.0000  -10.8170    6.7470 C.ar    1  UNL1       -0.0001
     12 C          24.0530  -11.8640    6.4850 C.2     1  UNL1       -0.0040
     13 C          23.2810  -11.6420    5.3280 C.ar    1  UNL1       -0.0001
     14 C          23.8910  -11.2710    4.0960 C.ar    1  UNL1        0.0033
     15 C          23.0640  -11.0360    3.0000 C.ar    1  UNL1        0.0420
     16 C          21.6670  -11.2410    3.0310 C.ar    1  UNL1        0.1957
     17 O          20.8680  -10.9500    1.9740 O.3     1  UNL1       -0.2866
     18 C          21.0540  -11.6640    4.1890 C.ar    1  UNL1        0.0420
     19 C          21.8850  -11.9290    5.3170 C.ar    1  UNL1        0.0033
     20 C          23.9580  -13.0260    7.4160 C.2     1  UNL1       -0.0222
     21 C          23.1400  -14.2840    7.0600 C.3     1  UNL1        0.0264
     22 C          21.9810  -14.3930    8.0370 C.3     1  UNL1        0.0050
     23 C          24.7890  -13.0530    8.5350 C.ar    1  UNL1       -0.0040
     24 C          24.5530  -11.9800    9.4440 C.ar    1  UNL1       -0.0003
     25 C          25.1220  -11.8960   10.7220 C.ar    1  UNL1       -0.0000
     26 C          25.8780  -12.9980   11.1540 C.ar    1  UNL1       -0.0000
     27 C          25.9920  -14.1160   10.3090 C.ar    1  UNL1       -0.0000
     28 C          25.3270  -14.1420    9.1140 C.ar    1  UNL1       -0.0003
@<TRIPOS>BOND
     1     2     1    1
     2     3     2    1
     3     4     3    1
     4     5     4    1
     5     6     5    1
     6     7     6   ar
     7     8     7   ar
     8     9     6   ar
     9    10     9   ar
    10    11    10   ar
    11    11     8   ar
    12    12    11    1
    13    13    12    1
    14    14    13   ar
    15    15    14   ar
    16    16    15   ar
    17    17    16    1
    18    18    16   ar
    19    19    18   ar
    20    19    13   ar
    21    20    12    2
    22    21    20    1
    23    22    21    1
    24    23    20    1
    25    24    23   ar
    26    25    24   ar
    27    26    25   ar
    28    27    26   ar
    29    28    27   ar
    30    28    23   ar
