@<TRIPOS>MOLECULE
7RRY_L84_B601
 37 41 0 0 0
SMALL
GASTEIGER

@<TRIPOS>ATOM
      1  C10       21.7230  -11.2410    2.9430 C.ar  601  L84601      0.1957
      2  C13       21.7850  -11.9890    5.1580 C.ar  601  L84601     -0.0009
      3  C20       27.7600  -12.9900   12.7240 C.3   601  L84601      0.4174
      4  C21       25.9710  -10.9880   11.1470 C.ar  601  L84601      0.0690
      5  C22       26.8940  -10.5790   10.2270 C.ar  601  L84601      0.0194
      6  C24       26.6430   -8.2680   10.7400 C.ar  601  L84601      0.1958
      7  C26       25.3970   -9.9530   11.8140 C.ar  601  L84601      0.0194
      8  C28       25.8500  -10.8980    6.7610 C.ar  601  L84601     -0.0195
      9  C01       23.1440  -11.8960    5.2470 C.ar  601  L84601     -0.0195
     10  C04       23.2680  -13.3950    7.2600 C.3   601  L84601      0.1214
     11  C06       24.9750  -12.7300    8.2230 C.3   601  L84601      0.1431
     12  C07       22.5850  -12.7410    8.4680 C.3   601  L84601      0.0579
     13  C08       23.8490  -12.2080    9.1390 C.3   601  L84601      0.1787
     14  C09       23.0610  -11.1320    3.0050 C.ar  601  L84601      0.0417
     15  C11       21.1010  -11.6670    4.0560 C.ar  601  L84601      0.0417
     16  C12       23.7630  -11.4550    4.1260 C.ar  601  L84601     -0.0009
     17  C16       24.9980  -11.9340    6.9280 C.3   601  L84601      0.0576
     18  C19       26.6270  -13.3220   11.8150 C.3   601  L84601      0.2182
     19  C23       27.2200   -9.2770   10.0380 C.ar  601  L84601      0.0433
     20  C25       25.7190   -8.6550   11.6310 C.ar  601  L84601      0.0433
     21  C27       23.7980  -12.2460    6.3830 C.3   601  L84601      0.0560
     22  C29       25.3950   -9.6470    6.5580 C.ar  601  L84601     -0.0009
     23  C30       26.2250   -8.6100    6.3890 C.ar  601  L84601      0.0417
     24  C31       27.5660   -8.7710    6.4130 C.ar  601  L84601      0.1957
     25  C32       28.0310  -10.0090    6.6160 C.ar  601  L84601      0.0417
     26  C33       27.1860  -11.0360    6.7840 C.ar  601  L84601     -0.0009
     27  F01       28.6370  -12.1800   12.1870 F     601  L84601     -0.1681
     28  F02       27.3280  -12.4700   13.8470 F     601  L84601     -0.1681
     29  F03       28.3970  -14.0900   13.0410 F     601  L84601     -0.1681
     30  N01       25.6650  -12.2570   11.2900 N.pl3 601  L84601     -0.1856
     31  O01       24.4120  -13.9510    7.8510 O.3   601  L84601     -0.3562
     32  O02       26.9760   -6.9410   10.5520 O.3   601  L84601     -0.2866
     33  O03       20.9880  -10.9450    1.8320 O.3   601  L84601     -0.2866
     34  O04       24.3430  -14.2620   10.8860 O.2   601  L84601     -0.1542
     35  O05       23.3230  -12.0950   11.7640 O.2   601  L84601     -0.1542
     36  O06       28.3910   -7.7140    6.2300 O.3   601  L84601     -0.2866
     37  S01       24.1250  -12.7990   10.7710 S.O2  601  L84601      0.0579
@<TRIPOS>BOND
     1    33     1    1
     2     1    14   ar
     3     1    15   ar
     4    14    16   ar
     5    15     2   ar
     6    16     9   ar
     7     2     9   ar
     8     9    21    1
     9    36    24    1
    10    21    17    1
    11    21    10    1
    12    23    24   ar
    13    23    22   ar
    14    24    25   ar
    15    22     8   ar
    16    25    26   ar
    17     8    26   ar
    18     8    17    1
    19    17    11    1
    20    10    31    1
    21    10    12    1
    22    31    11    1
    23    11    13    1
    24    12    13    1
    25    13    37    1
    26    19     5   ar
    27    19     6   ar
    28     5     4   ar
    29    32     6    1
    30     6    20   ar
    31    37    34    2
    32    37    30    1
    33    37    35    2
    34     4    30    1
    35     4     7   ar
    36    30    18    1
    37    20     7   ar
    38    18     3    1
    39    27     3    1
    40     3    29    1
    41     3    28    1
