@<TRIPOS>MOLECULE
7RRZ_77I_C601
 44 49 0 0 0
SMALL
GASTEIGER

@<TRIPOS>ATOM
      1  C10       26.0560   -6.0860   10.3170 C.3   601  77I601      0.2525
      2  C13       26.7160   -8.3410   10.3830 C.ar  601  77I601      0.1388
      3  C15       25.3880  -10.0670   11.4510 C.ar  601  77I601      0.0192
      4  C17       26.2450  -11.0610   10.9490 C.ar  601  77I601      0.0686
      5  C20       21.5230  -11.1750    2.8120 C.ar  601  77I601      0.1957
      6  C21       22.8720  -10.9110    2.9050 C.ar  601  77I601      0.0417
      7  C22       23.6010  -11.2710    4.0450 C.ar  601  77I601     -0.0009
      8  C24       25.5610   -8.2250    6.3790 C.ar  601  77I601      0.0366
      9  C26       27.5930   -9.5460    6.3260 C.ar  601  77I601      0.0366
     10  C28       25.4640  -10.6480    6.6030 C.ar  601  77I601     -0.0195
     11  C01       27.5430  -12.5450   13.1940 C.3   601  77I601      0.0252
     12  C02       28.6940   -1.5520    5.1890 C.3   601  77I601      0.0721
     13  C03       29.5030   -0.5450    4.3780 C.3   601  77I601      0.0174
     14  C04       30.8400   -1.0910    3.8700 C.3   601  77I601      0.0029
     15  C05       31.4740   -2.1530    4.7750 C.3   601  77I601      0.0174
     16  C06       30.4750   -3.2010    5.2930 C.3   601  77I601      0.0721
     17  C07       28.1080   -3.9350    4.9560 C.3   601  77I601      0.0759
     18  C08       28.3590   -4.9470    6.0480 C.3   601  77I601      0.0646
     19  C09       27.2270   -5.9640    6.0320 C.3   601  77I601      0.2068
     20  C11       27.3350  -10.6720   10.1600 C.ar  601  77I601      0.0192
     21  C12       27.5670   -9.3250    9.8820 C.ar  601  77I601      0.0382
     22  C14       25.6230   -8.7100   11.1770 C.ar  601  77I601      0.0382
     23  C16       27.0460  -13.1450   11.8750 C.3   601  77I601      0.1155
     24  C18       21.5900  -12.1250    5.0280 C.ar  601  77I601     -0.0009
     25  C19       20.8710  -11.7660    3.8770 C.ar  601  77I601      0.0417
     26  C23       24.8210   -9.4010    6.5500 C.ar  601  77I601     -0.0011
     27  C25       26.9670   -8.2970    6.2640 C.ar  601  77I601      0.1385
     28  C27       26.8530  -10.7040    6.4950 C.ar  601  77I601     -0.0011
     29  C29       22.9670  -11.8680    5.1280 C.ar  601  77I601     -0.0195
     30  C30       23.1060  -13.2800    7.2260 C.3   601  77I601      0.1214
     31  C31       23.6300  -12.2450    6.2400 C.3   601  77I601      0.0560
     32  C32       22.7330  -12.5760    8.5370 C.3   601  77I601      0.0579
     33  C33       24.8010  -11.8060    6.7730 C.3   601  77I601      0.0576
     34  C34       25.0300  -12.6770    7.9790 C.3   601  77I601      0.1431
     35  C35       24.1240  -12.1670    9.0990 C.3   601  77I601      0.1787
     36  N01       29.1190   -2.8940    4.8330 N.3   601  77I601     -0.2726
     37  N02       26.0340  -12.2960   11.1870 N.pl3 601  77I601     -0.1944
     38  O01       23.4880  -12.7040   11.5820 O.2   601  77I601     -0.1542
     39  O02       24.6610  -14.4010   10.5180 O.2   601  77I601     -0.1542
     40  O03       27.0290   -7.0580   10.0580 O.3   601  77I601     -0.4714
     41  O04       27.8020   -7.2270    6.0890 O.3   601  77I601     -0.4754
     42  O05       20.8350  -10.8260    1.7130 O.3   601  77I601     -0.2866
     43  O06       24.3300  -13.9160    7.6420 O.3   601  77I601     -0.3562
     44  S01       24.5620  -12.9510   10.6670 S.O2  601  77I601      0.0576
@<TRIPOS>BOND
     1    42     5    1
     2     5     6   ar
     3     5    25   ar
     4     6     7   ar
     5    14    13    1
     6    14    15    1
     7    25    24   ar
     8     7    29   ar
     9    13    12    1
    10    15    16    1
    11    36    17    1
    12    36    12    1
    13    36    16    1
    14    17    18    1
    15    24    29   ar
    16    29    31    1
    17    19    18    1
    18    19    41    1
    19    41    27    1
    20    31    33    1
    21    31    30    1
    22    27     9   ar
    23    27     8   ar
    24     9    28   ar
    25     8    26   ar
    26    28    10   ar
    27    26    10   ar
    28    10    33    1
    29    33    34    1
    30    30    43    1
    31    30    32    1
    32    43    34    1
    33    34    35    1
    34    32    35    1
    35    35    44    1
    36    21    20   ar
    37    21     2   ar
    38    40     1    1
    39    40     2    1
    40    20     4   ar
    41     2    22   ar
    42    39    44    2
    43    44    37    1
    44    44    38    2
    45     4    37    1
    46     4     3   ar
    47    22     3   ar
    48    37    23    1
    49    23    11    1
