@<TRIPOS>MOLECULE
7RS0_7I9_C601
 28 31 0 0 0
SMALL
GASTEIGER

@<TRIPOS>ATOM
      1  C10       24.9260   -8.4990    6.8160 C.ar  601  7I9601     -0.0011
      2  C13       27.8700   -9.1770    6.6720 C.ar  601  7I9601      0.0366
      3  C15       23.7210  -11.5990    3.8070 C.ar  601  7I9601     -0.0009
      4  C17       21.3640  -11.1960    2.7170 C.ar  601  7I9601      0.1957
      5  C01       24.3120  -10.9810    7.3790 C.3   601  7I9601      0.0576
      6  C02       24.1720  -11.6740    8.6610 C.3   601  7I9601      0.1430
      7  C03       24.8430  -12.8840    8.7210 C.3   601  7I9601      0.1784
      8  C04       24.2300  -13.7820    8.1470 C.3   601  7I9601      0.0577
      9  C05       23.8680  -12.3130    6.3310 C.3   601  7I9601      0.0560
     10  C06       23.2980  -13.2280    7.3620 C.3   601  7I9601      0.1214
     11  O07       22.8070  -12.2390    8.4370 O.3   601  7I9601     -0.3562
     12  C08       23.0420  -11.9460    5.1220 C.ar  601  7I9601     -0.0195
     13  C09       25.3760   -9.9300    7.0630 C.ar  601  7I9601     -0.0195
     14  C11       25.9320   -7.4040    6.4950 C.ar  601  7I9601      0.0366
     15  C12       27.4200   -7.7340    6.4300 C.ar  601  7I9601      0.1385
     16  C14       26.8560  -10.2780    6.9840 C.ar  601  7I9601     -0.0011
     17  C16       22.8800  -11.2180    2.5970 C.ar  601  7I9601      0.0417
     18  C18       20.6950  -11.5440    4.0420 C.ar  601  7I9601      0.0417
     19  C19       21.5290  -11.9130    5.2500 C.ar  601  7I9601     -0.0009
     20  O20       20.5540  -10.8610    1.6300 O.3   601  7I9601     -0.2866
     21  O21       28.3700   -6.7280    6.1280 O.3   601  7I9601     -0.4755
     22  N22       25.2620  -14.9510   11.0660 N.3   601  7I9601      0.0346
     23  C32       28.2720   -5.4780    6.7680 C.3   601  7I9601      0.2054
     24  C33       28.3610   -4.3850    5.6910 C.3   601  7I9601      0.0473
     25  C34       28.2850   -3.0110    6.3420 C.3   601  7I9601      0.0040
     26  S42       24.9920  -13.2980   10.7840 S.O2  601  7I9601      0.0747
     27  O43       26.0480  -12.4550   11.3440 O.2   601  7I9601     -0.1548
     28  O44       23.7960  -12.8110   11.4710 O.2   601  7I9601     -0.1548
@<TRIPOS>BOND
     1    20     4    1
     2    17     4   ar
     3    17     3   ar
     4     4    18   ar
     5     3    12   ar
     6    18    19   ar
     7    12    19   ar
     8    12     9    1
     9    24    25    1
    10    24    23    1
    11    21    15    1
    12    21    23    1
    13     9    10    1
    14     9     5    1
    15    15    14   ar
    16    15     2   ar
    17    14     1   ar
    18     2    16   ar
    19     1    13   ar
    20    16    13   ar
    21    13     5    1
    22    10     8    1
    23    10    11    1
    24     5     6    1
    25     8     7    1
    26    11     6    1
    27     6     7    1
    28     7    26    1
    29    26    22    1
    30    26    27    2
    31    26    28    2
