@<TRIPOS>MOLECULE
7RS1_7Q5_C601
 38 42 0 0 0
SMALL
GASTEIGER

@<TRIPOS>ATOM
      1  C10       25.2810   -9.3700    6.6340 C.ar  601  7Q5601     -0.0009
      2  C13       28.2680   -9.6810    6.7660 C.ar  601  7Q5601      0.0417
      3  C15       21.3540  -12.0720    5.3080 C.ar  601  7Q5601     -0.0009
      4  C17       21.4300  -11.1670    2.8770 C.ar  601  7Q5601      0.1957
      5  C24       26.8110  -13.7530   11.3660 C.3   601  7Q5601      0.2182
      6  C26       25.3790   -8.6910   11.1760 C.ar  601  7Q5601      0.0013
      7  C28       27.6680   -9.3750   10.0370 C.ar  601  7Q5601      0.0013
      8  C01       25.1680  -12.0200    7.0470 C.3   601  7Q5601      0.0576
      9  C02       25.0260  -12.7110    8.3430 C.3   601  7Q5601      0.1431
     10  C03       23.8940  -12.3150    9.0520 C.3   601  7Q5601      0.1787
     11  C04       22.8350  -12.7870    8.6410 C.3   601  7Q5601      0.0579
     12  C05       23.5470  -12.2880    6.5760 C.3   601  7Q5601      0.0560
     13  C06       23.1030  -13.3610    7.4600 C.3   601  7Q5601      0.1214
     14  O07       24.4460  -13.9840    7.8720 O.3   601  7Q5601     -0.3562
     15  C08       22.8510  -11.8930    5.3140 C.ar  601  7Q5601     -0.0195
     16  C09       25.9160  -10.7280    6.8760 C.ar  601  7Q5601     -0.0195
     17  C11       26.1660   -8.1550    6.4670 C.ar  601  7Q5601      0.0417
     18  C12       27.6740   -8.3420    6.5260 C.ar  601  7Q5601      0.1957
     19  C14       27.4040  -10.8930    6.9240 C.ar  601  7Q5601     -0.0009
     20  C16       20.6200  -11.6960    4.0540 C.ar  601  7Q5601      0.0417
     21  C18       22.9260  -10.9710    2.9220 C.ar  601  7Q5601      0.0417
     22  C19       23.6700  -11.3610    4.1600 C.ar  601  7Q5601     -0.0009
     23  O20       20.7250  -10.8140    1.7360 O.3   601  7Q5601     -0.2866
     24  O21       28.5210   -7.2570    6.3710 O.3   601  7Q5601     -0.2866
     25  N22       25.8210  -12.6900   11.2150 N.pl3 601  7Q5601     -0.1856
     26  C23       26.0990  -11.2540   11.0330 C.ar  601  7Q5601      0.0688
     27  C25       25.0900  -10.1750   11.4460 C.ar  601  7Q5601      0.0161
     28  C27       26.6710   -8.3060   10.4660 C.ar  601  7Q5601      0.0001
     29  C29       27.3760  -10.8480   10.2990 C.ar  601  7Q5601      0.0161
     30  C30       27.0360   -6.8530   10.1850 C.2   601  7Q5601      0.0000
     31  C1        28.0900   -6.3660   10.7930 C.2   601  7Q5601      0.0000
     32  S32       24.1910  -13.1500   10.9580 S.O2  601  7Q5601      0.0579
     33  O33       23.9660  -14.6120   10.9550 O.2   601  7Q5601     -0.1542
     34  O34       23.1330  -12.5450   11.7620 O.2   601  7Q5601     -0.1542
     35  C35       27.1460  -14.0140   12.8090 C.3   601  7Q5601      0.4174
     36  F36       25.9690  -14.1740   13.4880 F     601  7Q5601     -0.1681
     37  F37       27.8450  -12.9010   13.1900 F     601  7Q5601     -0.1681
     38  F38       27.9010  -15.1540   12.9190 F     601  7Q5601     -0.1681
@<TRIPOS>BOND
     1    23     4    1
     2     4    21   ar
     3     4    20   ar
     4    21    22   ar
     5    20     3   ar
     6    22    15   ar
     7     3    15   ar
     8    15    12    1
     9    24    18    1
    10    17    18   ar
    11    17     1   ar
    12    18     2   ar
    13    12     8    1
    14    12    13    1
    15     1    16   ar
    16     2    19   ar
    17    16    19   ar
    18    16     8    1
    19     8     9    1
    20    13    14    1
    21    13    11    1
    22    14     9    1
    23     9    10    1
    24    11    10    1
    25    10    32    1
    26     7    29   ar
    27     7    28   ar
    28    30    28    1
    29    30    31    2
    30    29    26   ar
    31    28     6   ar
    32    33    32    2
    33    32    25    1
    34    32    34    2
    35    26    25    1
    36    26    27   ar
    37     6    27   ar
    38    25     5    1
    39     5    35    1
    40    35    38    1
    41    35    37    1
    42    35    36    1
