@<TRIPOS>MOLECULE
7RS7_73I_A601
 37 38 0 0 0
SMALL
GASTEIGER

@<TRIPOS>ATOM
      1  C10       27.2150  -12.3620    6.3540 C.ar  601  73I601      0.0030
      2  C13       22.8480  -13.5460    7.0240 C.3   601  73I601      0.1394
      3  C15       22.9370  -12.1170    4.9770 C.ar  601  73I601     -0.0017
      4  C17       28.4620  -11.8330    6.1970 C.ar  601  73I601      0.0420
      5  C20       27.6790   -9.7920    6.4730 C.ar  601  73I601      0.0420
      6  C21       26.0880  -11.6580    6.5250 C.ar  601  73I601     -0.0017
      7  C22       25.1050  -10.6040   11.9140 C.ar  601  73I601      0.0686
      8  C24       25.1360   -8.1380   11.9340 C.ar  601  73I601      0.0433
      9  C26       24.6670  -13.2640    7.9210 C.3   601  73I601      0.1612
     10  C01       26.9320  -12.5910   13.3120 C.3   601  73I601      0.0252
     11  C02       20.8450  -11.9380    3.7880 C.ar  601  73I601      0.0420
     12  C03       22.3180  -13.0030    8.3620 C.3   601  73I601      0.0625
     13  F01       26.3240  -15.5730    8.3300 F     601  73I601      0.0000
     14  C04       21.4700  -11.3850    2.6780 C.ar  601  73I601      0.1957
     15  O01       23.8910  -14.3290    7.5190 O.3   601  73I601     -0.3481
     16  C05       21.5790  -12.2890    4.8870 C.ar  601  73I601      0.0030
     17  C06       23.5360  -11.5560    3.8840 C.ar  601  73I601      0.0030
     18  F02       26.3330  -15.4480   10.4010 F     601  73I601      0.0000
     19  F03       27.6200  -16.6880    9.2990 F     601  73I601      0.0000
     20  C07       24.4970   -9.3640   12.0530 C.ar  601  73I601      0.0194
     21  O02       27.3540   -6.9980   11.5080 O.3   601  73I601     -0.2866
     22  C08       22.8150  -11.2100    2.7560 C.ar  601  73I601      0.0420
     23  O03       24.3760  -14.3620   10.7120 O.2   601  73I601     -0.1542
     24  C09       28.7090  -10.5300    6.2560 C.ar  601  73I601      0.1957
     25  C11       23.6750  -12.6620    9.0240 C.3   601  73I601      0.1829
     26  C12       26.9670   -9.2380   11.5420 C.ar  601  73I601      0.0433
     27  O04       22.5040  -12.7290   11.1150 O.2   601  73I601     -0.1542
     28  N01       24.8220  -11.9150   11.9630 N.pl3 601  73I601     -0.1944
     29  C16       26.4490   -8.0480   11.6510 C.ar  601  73I601      0.1958
     30  S01       23.9430  -12.9690   10.8700 S.O2  601  73I601      0.0580
     31  C19       25.4520  -12.7140   13.1200 C.3   601  73I601      0.1155
     32  O05       20.7230  -10.9680    1.5870 O.3   601  73I601     -0.2866
     33  C23       23.5780  -12.5210    6.1150 C.2   601  73I601      0.0030
     34  O06       29.9260   -9.9640    6.1290 O.3   601  73I601     -0.2866
     35  C25       26.4660  -10.3410    6.6030 C.ar  601  73I601      0.0030
     36  C14       24.7890  -12.2570    6.7280 C.2   601  73I601      0.0046
     37  C18       26.3780  -10.3860   11.6790 C.ar  601  73I601      0.0194
@<TRIPOS>BOND
     1    32    14    1
     2    14    22   ar
     3    14    11   ar
     4    22    17   ar
     5    11    16   ar
     6    17     3   ar
     7    16     3   ar
     8     3    33    1
     9    33    36    2
    10    33     2    1
    11    34    24    1
    12     4    24   ar
    13     4     1   ar
    14    24     5   ar
    15     1     6   ar
    16     5    35   ar
    17     6    35   ar
    18     6    36    1
    19    36     9    1
    20     2    15    1
    21     2    12    1
    22    15     9    1
    23     9    25    1
    24    12    25    1
    25    25    30    1
    26    23    30    2
    27    30    27    2
    28    30    28    1
    29    21    29    1
    30    26    29   ar
    31    26    37   ar
    32    29     8   ar
    33    37     7   ar
    34     7    28    1
    35     7    20   ar
    36     8    20   ar
    37    28    31    1
    38    31    10    1
