@<TRIPOS>MOLECULE
7RS9_7OI_C601
 31 34 0 0 0
SMALL
GASTEIGER

@<TRIPOS>ATOM
      1  C10       21.5170  -11.9470    5.2110 C.ar  601  7OI601     -0.0009
      2  C13       26.7780  -16.6800   10.4450 C.3   601  7OI601      0.4137
      3  C20       23.4970  -12.0860    6.5070 C.3   601  7OI601      0.0560
      4  C22       25.5610  -10.7450    6.8750 C.ar  601  7OI601     -0.0195
      5  C24       27.7300   -9.8470    6.5310 C.ar  601  7OI601      0.0417
      6  C26       25.9280   -8.4160    6.6910 C.ar  601  7OI601      0.0417
      7  C01       22.8640  -11.8010    5.3490 C.ar  601  7OI601     -0.0195
      8  N01       26.0440  -14.2220   10.6990 N.3   601  7OI601     -0.1492
      9  C02       22.8530  -12.8930    7.6340 C.3   601  7OI601      0.1214
     10  S01       24.6670  -13.2500   10.9500 S.O2  601  7OI601      0.0448
     11  C03       24.8850  -12.8780    8.1000 C.3   601  7OI601      0.1429
     12  C04       22.8640  -12.0630    8.9320 C.3   601  7OI601      0.0576
     13  C05       24.3350  -12.2530    9.3920 C.3   601  7OI601      0.1755
     14  C06       22.8940  -11.0960    3.0830 C.ar  601  7OI601      0.0417
     15  C07       21.5480  -11.2430    2.9730 C.ar  601  7OI601      0.1957
     16  C08       20.8790  -11.6760    4.0580 C.ar  601  7OI601      0.0417
     17  C09       23.5380  -11.3760    4.2410 C.ar  601  7OI601     -0.0009
     18  O01       23.8750  -13.8300    7.8360 O.3   601  7OI601     -0.3562
     19  C11       24.7090  -11.7870    7.0340 C.3   601  7OI601      0.0576
     20  C12       25.8240  -15.5880   10.0730 C.3   601  7OI601      0.1983
     21  O03       20.8550  -10.9750    1.8330 O.3   601  7OI601     -0.2866
     22  O05       24.7730  -12.0580   11.7750 O.2   601  7OI601     -0.1573
     23  C14       27.2280  -13.8250   11.0180 C.3   601  7OI601      0.1148
     24  C23       26.8990  -10.8950    6.6980 C.ar  601  7OI601     -0.0009
     25  C25       27.2560   -8.5850    6.5260 C.ar  601  7OI601      0.1957
     26  C27       25.1080   -9.4700    6.8610 C.ar  601  7OI601     -0.0009
     27  O06       28.0610   -7.5100    6.3530 O.3   601  7OI601     -0.2866
     28  F01       27.8890  -16.6420    9.7640 F     601  7OI601     -0.1684
     29  F02       26.2540  -17.8550   10.2190 F     601  7OI601     -0.1684
     30  F03       27.0800  -16.6400   11.7110 F     601  7OI601     -0.1684
     31  O04       23.4040  -13.9770   10.8700 O.2   601  7OI601     -0.1573
@<TRIPOS>BOND
     1    21    15    1
     2    15    14   ar
     3    15    16   ar
     4    14    17   ar
     5    16     1   ar
     6    17     7   ar
     7     1     7   ar
     8     7     3    1
     9    27    25    1
    10     3    19    1
    11     3     9    1
    12    25     5   ar
    13    25     6   ar
    14     5    24   ar
    15     6    26   ar
    16    24     4   ar
    17    26     4   ar
    18     4    19    1
    19    19    11    1
    20     9    18    1
    21     9    12    1
    22    18    11    1
    23    11    13    1
    24    12    13    1
    25    13    10    1
    26    28     2    1
    27    20     2    1
    28    20     8    1
    29    29     2    1
    30     2    30    1
    31     8    10    1
    32     8    23    1
    33    31    10    2
    34    10    22    2
