@<TRIPOS>MOLECULE
7RS9_7OI_C601
 31 34 0 0 0
SMALL
GASTEIGER

@<TRIPOS>ATOM
      1  C10       21.5890  -11.9840    5.1580 C.ar  601  7OI601     -0.0009
      2  C13       26.7890  -16.7830   10.3920 C.3   601  7OI601      0.4137
      3  C20       23.5660  -12.1470    6.4560 C.3   601  7OI601      0.0560
      4  C22       25.6460  -10.8310    6.8260 C.ar  601  7OI601     -0.0195
      5  C24       27.8250   -9.9590    6.4840 C.ar  601  7OI601      0.0417
      6  C26       26.0400   -8.5060    6.6440 C.ar  601  7OI601      0.0417
      7  C01       22.9380  -11.8540    5.2970 C.ar  601  7OI601     -0.0195
      8  N01       26.0850  -14.3160   10.6480 N.3   601  7OI601     -0.1492
      9  C02       22.9120  -12.9470    7.5810 C.3   601  7OI601      0.1214
     10  S01       24.7190  -13.3280   10.8980 S.O2  601  7OI601      0.0448
     11  C03       24.9440  -12.9560    8.0490 C.3   601  7OI601      0.1429
     12  C04       22.9320  -12.1190    8.8800 C.3   601  7OI601      0.0576
     13  C05       24.4000  -12.3260    9.3410 C.3   601  7OI601      0.1755
     14  C06       22.9770  -11.1480    3.0320 C.ar  601  7OI601      0.0417
     15  C07       21.6310  -11.2780    2.9210 C.ar  601  7OI601      0.1957
     16  C08       20.9560  -11.7050    4.0050 C.ar  601  7OI601      0.0417
     17  C09       23.6180  -11.4360    4.1910 C.ar  601  7OI601     -0.0009
     18  O01       23.9230  -13.8970    7.7830 O.3   601  7OI601     -0.3562
     19  C11       24.7810  -11.8640    6.9830 C.3   601  7OI601      0.0576
     20  C12       25.8490  -15.6790   10.0210 C.3   601  7OI601      0.1983
     21  O03       20.9420  -11.0020    1.7810 O.3   601  7OI601     -0.2866
     22  O05       24.8390  -12.1390   11.7240 O.2   601  7OI601     -0.1573
     23  C14       27.2730  -13.9330   10.9670 C.3   601  7OI601      0.1148
     24  C23       26.9830  -10.9970    6.6490 C.ar  601  7OI601     -0.0009
     25  C25       27.3670   -8.6910    6.4790 C.ar  601  7OI601      0.1957
     26  C27       25.2080   -9.5500    6.8120 C.ar  601  7OI601     -0.0009
     27  O06       28.1850   -7.6260    6.3080 O.3   601  7OI601     -0.2866
     28  F01       27.9010  -16.7580    9.7130 F     601  7OI601     -0.1684
     29  F02       26.2520  -17.9520   10.1650 F     601  7OI601     -0.1684
     30  F03       27.0910  -16.7470   11.6590 F     601  7OI601     -0.1684
     31  O04       23.4480  -14.0400   10.8170 O.2   601  7OI601     -0.1573
@<TRIPOS>BOND
     1    21    15    1
     2    15    14   ar
     3    15    16   ar
     4    14    17   ar
     5    16     1   ar
     6    17     7   ar
     7     1     7   ar
     8     7     3    1
     9    27    25    1
    10     3    19    1
    11     3     9    1
    12    25     5   ar
    13    25     6   ar
    14     5    24   ar
    15     6    26   ar
    16    24     4   ar
    17    26     4   ar
    18     4    19    1
    19    19    11    1
    20     9    18    1
    21     9    12    1
    22    18    11    1
    23    11    13    1
    24    12    13    1
    25    13    10    1
    26    28     2    1
    27    20     2    1
    28    20     8    1
    29    29     2    1
    30     2    30    1
    31     8    10    1
    32     8    23    1
    33    31    10    2
    34    10    22    2
