@<TRIPOS>MOLECULE
7UJ7_NYU_C901
 32 36 0 0 0
SMALL
GASTEIGER

@<TRIPOS>ATOM
      1 C          23.8810  -11.6830    4.1710 C.ar    1  UNL1       -0.0013
      2 C          23.1610  -11.3290    3.0650 C.ar    1  UNL1        0.0417
      3 C          21.7850  -11.2520    3.1440 C.ar    1  UNL1        0.1954
      4 C          21.1700  -11.5430    4.3430 C.ar    1  UNL1        0.0375
      5 C          21.9040  -11.9110    5.4640 C.ar    1  UNL1       -0.0230
      6 C          23.2880  -11.9540    5.4020 C.ar    1  UNL1       -0.0259
      7 C          21.1600  -12.2190    6.7380 C.3     1  UNL1        0.0261
      8 C          21.9630  -13.0150    7.7310 C.3     1  UNL1        0.0050
      9 C          23.3400  -12.4090    7.9150 C.3     1  UNL1        0.0048
     10 C          24.1130  -12.4500    6.5800 C.3     1  UNL1        0.0260
     11 C          24.1410  -13.1580    8.9590 C.3     1  UNL1        0.0028
     12 C          25.5480  -12.5850    9.1390 C.3     1  UNL1        0.0285
     13 C          26.2820  -12.6730    7.8150 C.3     1  UNL1        0.0071
     14 C          25.5650  -11.9650    6.6760 C.3     1  UNL1        0.0264
     15 C          23.6150  -13.2850   10.3940 C.3     1  UNL1        0.0027
     16 C          24.8900  -13.6010   11.2120 C.3     1  UNL1        0.0329
     17 C          26.0600  -13.5360   10.2200 C.3     1  UNL1        0.1519
     18 C          25.5720  -11.1560    9.6830 C.3     1  UNL1        0.0025
     19 C          25.7910  -10.4650    6.7050 C.ar    1  UNL1       -0.0220
     20 C          24.7510   -9.5670    6.6770 C.ar    1  UNL1       -0.0012
     21 C          24.9720   -8.2060    6.7140 C.ar    1  UNL1        0.0366
     22 C          26.2550   -7.7100    6.7500 C.ar    1  UNL1        0.1386
     23 C          27.3150   -8.5920    6.7550 C.ar    1  UNL1        0.0366
     24 C          27.0730   -9.9520    6.7510 C.ar    1  UNL1       -0.0012
     25 C          27.7240   -5.8230    6.9430 C.3     1  UNL1        0.2226
     26 C          27.5990   -4.3250    7.0470 C.3     1  UNL1        0.1201
     27 C          27.3880   -2.2230    5.9820 C.3     1  UNL1        0.0898
     28 C          25.9870   -4.0140    5.3100 C.3     1  UNL1        0.0898
     29 N          27.3110   -3.6650    5.8050 N.3     1  UNL1       -0.2672
     30 O          21.0150  -10.9180    2.0690 O.3     1  UNL1       -0.2866
     31 O          27.2670  -13.1110   10.8290 O.3     1  UNL1       -0.2232
     32 O          26.4170   -6.3590    6.7670 O.3     1  UNL1       -0.4740
@<TRIPOS>BOND
     1     2     1   ar
     2     3     2   ar
     3     4     3   ar
     4     5     4   ar
     5     6     1   ar
     6     6     5   ar
     7     7     5    1
     8     8     7    1
     9     9     8    1
    10    10     6    1
    11    10     9    1
    12    11     9    1
    13    12    11    1
    14    13    12    1
    15    14    13    1
    16    14    10    1
    17    11    15    1
    18    16    15    1
    19    17    12    1
    20    17    16    1
    21    12    18    1
    22    14    19    1
    23    20    19   ar
    24    21    20   ar
    25    22    21   ar
    26    23    22   ar
    27    24    19   ar
    28    24    23   ar
    29    26    25    1
    30    29    28    1
    31    29    27    1
    32    29    26    1
    33    30     3    1
    34    17    31    1
    35    32    22    1
    36    32    25    1
