@<TRIPOS>MOLECULE
7UJF_R3V_C601
 32 36 0 0 0
SMALL
GASTEIGER

@<TRIPOS>ATOM
      1 C          26.8990   -4.6110    6.3590 C.3     1  UNL1        0.0722
      2 C          26.7110   -3.4040    5.5020 C.3     1  UNL1        0.0174
      3 C          25.3840   -2.6910    5.8920 C.3     1  UNL1        0.0015
      4 C          27.8740   -2.5530    5.7400 C.3     1  UNL1        0.0187
      5 C          28.9320   -3.5000    6.3420 C.3     1  UNL1        0.0722
      6 N          28.3200   -4.8230    6.1840 N.3     1  UNL1       -0.2696
      7 C          28.8000   -5.7650    7.1000 C.3     1  UNL1        0.1200
      8 C          28.3130   -7.1710    6.7050 C.3     1  UNL1        0.2226
      9 O          27.1320   -7.4330    7.4620 O.3     1  UNL1       -0.4740
     10 C          26.4000   -8.6210    7.1560 C.ar    1  UNL1        0.1386
     11 C          24.8840   -8.5790    6.9980 C.ar    1  UNL1        0.0366
     12 C          24.1700   -9.7230    6.7030 C.ar    1  UNL1       -0.0008
     13 C          27.0810   -9.7960    7.0280 C.ar    1  UNL1        0.0366
     14 C          26.2800  -11.0570    6.7110 C.ar    1  UNL1       -0.0008
     15 C          24.9130  -11.0380    6.5710 C.ar    1  UNL1       -0.0179
     16 C          24.1900  -12.3340    6.2400 C.3     1  UNL1        0.0483
     17 C          23.2920  -12.0220    5.1680 C.ar    1  UNL1       -0.0219
     18 C          23.9630  -11.6490    3.8570 C.ar    1  UNL1       -0.0010
     19 C          23.1280  -11.3350    2.8020 C.ar    1  UNL1        0.0417
     20 C          21.6050  -11.3570    2.9500 C.ar    1  UNL1        0.1954
     21 O          20.8050  -10.9980    1.8650 O.3     1  UNL1       -0.2866
     22 C          20.9910  -11.7180    4.1290 C.ar    1  UNL1        0.0375
     23 C          21.9590  -12.0230    5.2530 C.ar    1  UNL1       -0.0226
     24 C          21.0470  -12.3610    6.4630 C.3     1  UNL1        0.0265
     25 C          22.0230  -12.1590    7.6520 C.3     1  UNL1        0.0097
     26 C          23.3770  -12.8580    7.3800 C.3     1  UNL1        0.0307
     27 C          24.2340  -12.8790    8.6580 C.ar    1  UNL1       -0.0219
     28 C          24.2280  -11.8130    9.5370 C.ar    1  UNL1       -0.0043
     29 C          25.0090  -11.8510   10.6890 C.ar    1  UNL1       -0.0003
     30 C          25.7880  -12.9760   10.9480 C.ar    1  UNL1       -0.0000
     31 C          25.7890  -14.0490   10.0750 C.ar    1  UNL1       -0.0003
     32 C          25.0100  -14.0080    8.9220 C.ar    1  UNL1       -0.0043
@<TRIPOS>BOND
     1     2     1    1
     2     2     3    1
     3     4     2    1
     4     5     4    1
     5     6     1    1
     6     6     5    1
     7     7     6    1
     8     8     7    1
     9     9     8    1
    10    10     9    1
    11    11    10   ar
    12    12    11   ar
    13    13    10   ar
    14    14    13   ar
    15    15    14   ar
    16    15    12   ar
    17    16    15    1
    18    17    16    1
    19    18    17   ar
    20    19    18   ar
    21    20    19   ar
    22    21    20    1
    23    22    20   ar
    24    23    22   ar
    25    23    17   ar
    26    24    23    1
    27    25    24    1
    28    26    25    1
    29    26    16    1
    30    26    27    1
    31    28    27   ar
    32    29    28   ar
    33    30    29   ar
    34    31    30   ar
    35    32    31   ar
    36    32    27   ar
