@<TRIPOS>MOLECULE
7UJO_QYM_C601
 32 36 0 0 0
SMALL
GASTEIGER

@<TRIPOS>ATOM
      1 C          24.0290  -11.6230    4.3560 C.ar    1  UNL1       -0.0013
      2 C          23.2840  -11.4570    3.2380 C.ar    1  UNL1        0.0417
      3 C          21.7950  -11.6040    3.3090 C.ar    1  UNL1        0.1954
      4 C          21.1760  -11.9040    4.4700 C.ar    1  UNL1        0.0375
      5 C          22.0390  -12.0850    5.7270 C.ar    1  UNL1       -0.0230
      6 C          23.3390  -12.0020    5.6630 C.ar    1  UNL1       -0.0259
      7 C          21.3200  -12.3880    6.8750 C.3     1  UNL1        0.0261
      8 C          22.0540  -13.3500    7.5920 C.3     1  UNL1        0.0050
      9 C          23.2940  -12.7300    8.1940 C.3     1  UNL1        0.0048
     10 C          24.1010  -12.0680    6.8840 C.3     1  UNL1        0.0260
     11 C          24.1200  -13.5280    8.9890 C.3     1  UNL1        0.0028
     12 C          25.4620  -12.9750    9.2280 C.3     1  UNL1        0.0285
     13 C          26.2510  -12.9940    8.0550 C.3     1  UNL1        0.0071
     14 C          25.6820  -12.2350    6.8050 C.3     1  UNL1        0.0264
     15 C          23.5280  -13.6490   10.4860 C.3     1  UNL1        0.0027
     16 C          24.8940  -14.0190   11.3600 C.3     1  UNL1        0.0329
     17 C          26.0500  -13.9060   10.2990 C.3     1  UNL1        0.1519
     18 C          25.4440  -11.5960    9.9130 C.3     1  UNL1        0.0025
     19 C          26.0660  -10.8190    6.7620 C.ar    1  UNL1       -0.0220
     20 C          25.0370   -9.8770    6.9240 C.ar    1  UNL1       -0.0012
     21 C          25.2360   -8.5050    6.8830 C.ar    1  UNL1        0.0366
     22 C          26.5240   -8.0670    6.6930 C.ar    1  UNL1        0.1386
     23 C          27.5840   -8.9700    6.5270 C.ar    1  UNL1        0.0366
     24 C          27.3640  -10.3600    6.5590 C.ar    1  UNL1       -0.0012
     25 C          27.9290   -6.1990    6.1440 C.3     1  UNL1        0.2226
     26 C          27.9120   -4.6520    6.2380 C.3     1  UNL1        0.1201
     27 C          27.7410   -2.6300    5.0340 C.3     1  UNL1        0.0898
     28 C          26.1840   -4.3230    4.6420 C.3     1  UNL1        0.0898
     29 N          27.5430   -4.0530    4.9730 N.3     1  UNL1       -0.2672
     30 O          21.0330  -11.4160    2.1050 O.3     1  UNL1       -0.2866
     31 O          27.1620  -13.3830   10.8690 O.3     1  UNL1       -0.2232
     32 O          26.6880   -6.6580    6.6650 O.3     1  UNL1       -0.4740
@<TRIPOS>BOND
     1     2     1   ar
     2     3     2   ar
     3     4     3   ar
     4     5     4   ar
     5     6     1   ar
     6     6     5   ar
     7     7     5    1
     8     8     7    1
     9     9     8    1
    10    10     9    1
    11    10     6    1
    12    11     9    1
    13    12    11    1
    14    13    12    1
    15    14    13    1
    16    14    10    1
    17    11    15    1
    18    16    15    1
    19    17    12    1
    20    17    16    1
    21    12    18    1
    22    14    19    1
    23    20    19   ar
    24    21    20   ar
    25    22    21   ar
    26    23    22   ar
    27    24    19   ar
    28    24    23   ar
    29    26    25    1
    30    29    28    1
    31    29    27    1
    32    29    26    1
    33    30     3    1
    34    17    31    1
    35    32    22    1
    36    32    25    1
