@<TRIPOS>MOLECULE
8DU8_TS7_B601
 35 41 0 0 0
SMALL
GASTEIGER

@<TRIPOS>ATOM
      1  N1        24.2690  -12.8040    7.0230 N.am  601  TS7601     -0.2730
      2  C4        21.3600  -11.8030    4.0420 C.ar  601  TS7601      0.0376
      3  C5        22.4160  -12.0660    5.0770 C.ar  601  TS7601     -0.0195
      4  C6        23.7280  -11.9000    4.8860 C.ar  601  TS7601     -0.0038
      5  C7        21.8500  -12.6100    6.4040 C.3   601  TS7601      0.0444
      6  C8        22.8830  -12.4980    7.4280 C.3   601  TS7601      0.0652
      7  C10       25.1590  -13.7370    7.6280 C.2   601  TS7601      0.2494
      8  C13       24.6050   -9.6480    6.3830 C.ar  601  TS7601      0.0008
      9  C15       26.4310   -8.2180    7.0340 C.ar  601  TS7601      0.1351
     10  C17       26.9220  -10.6230    6.5090 C.ar  601  TS7601      0.0008
     11  C20       28.2000   -6.6060    6.9480 C.3   601  TS7601      0.0656
     12  C21       27.9460   -6.2170    5.6310 C.3   601  TS7601     -0.0490
     13  C22       28.5180   -5.3310    7.4840 C.3   601  TS7601     -0.0490
     14  C24       27.7800   -2.8030    6.6480 C.3   601  TS7601     -0.0221
     15  C26       23.7310  -15.5330    8.1810 C.ar  601  TS7601      0.0045
     16  C28       23.7220  -16.7870   10.1660 C.ar  601  TS7601      0.0000
     17  C1        24.2050  -11.3750    3.5320 C.ar  601  TS7601      0.0006
     18  C11       24.7020  -14.7480    8.6680 C.ar  601  TS7601      0.0536
     19  C12       25.4550  -10.7120    6.2580 C.ar  601  TS7601      0.0001
     20  C14       25.1670   -8.3560    6.8330 C.ar  601  TS7601      0.0365
     21  C16       27.3760   -9.3960    6.8810 C.ar  601  TS7601      0.0365
     22  C18       22.3900  -12.6420    8.9070 C.3   601  TS7601      0.0203
     23  C19       22.7350  -11.2540    8.3820 C.3   601  TS7601      0.0203
     24  C2        23.2800  -11.1280    2.5870 C.ar  601  TS7601      0.0417
     25  C23       27.5720   -4.2080    5.9920 C.3   601  TS7601     -0.0680
     26  C25       29.2080   -2.2060    6.5830 C.3   601  TS7601     -0.0022
     27  C27       23.1560  -16.6940    8.9770 C.ar  601  TS7601      0.0001
     28  C29       24.7830  -15.8690   10.7250 C.ar  601  TS7601      0.0001
     29  C3        21.8070  -11.3060    2.8200 C.ar  601  TS7601      0.1954
     30  C30       25.3180  -14.8360   10.0100 C.ar  601  TS7601      0.0045
     31  C9        24.8390  -12.0360    5.8550 C.3   601  TS7601      0.1203
     32  N2        28.3980   -4.9560    6.1300 N.4   601  TS7601      0.4136
     33  O1        26.2760  -13.7990    7.1850 O.2   601  TS7601     -0.2699
     34  O2        20.8890  -10.9850    1.8630 O.3   601  TS7601     -0.2866
     35  O3        26.8830   -6.9350    7.4700 O.3   601  TS7601     -0.5041
@<TRIPOS>BOND
     1    34    29    1
     2    24    29   ar
     3    24    17   ar
     4    29     2   ar
     5    17     4   ar
     6     2     3   ar
     7     4     3   ar
     8     4    31    1
     9     3     5    1
    10    12    32    1
    11    12    11    1
    12    31    19    1
    13    31     1    1
    14    25    32    1
    15    25    14    1
    16    32    11    1
    17    32    13    1
    18    19     8   ar
    19    19    10   ar
    20     8    20   ar
    21     5     6    1
    22    10    21   ar
    23    26    14    1
    24    20     9   ar
    25    21     9   ar
    26    11    35    1
    27    11    13    1
    28     1     6    1
    29     1     7   am
    30     9    35    1
    31    33     7    2
    32     6    23    1
    33     6    22    1
    34     7    18    1
    35    15    18   ar
    36    15    27   ar
    37    23    22    1
    38    18    30   ar
    39    27    16   ar
    40    30    28   ar
    41    16    28   ar
