@<TRIPOS>MOLECULE
8DUB_TTU_B601
 35 40 0 0 0
SMALL
GASTEIGER

@<TRIPOS>ATOM
      1 N          24.1930  -13.0090    6.9640 N.am    1  UNL1       -0.2730
      2 C          21.3590  -11.8380    4.0220 C.ar    1  UNL1        0.0376
      3 C          22.3670  -12.1550    5.1030 C.ar    1  UNL1       -0.0195
      4 C          23.6380  -12.0130    4.8670 C.ar    1  UNL1       -0.0038
      5 C          21.8430  -12.6630    6.4490 C.3     1  UNL1        0.0444
      6 C          22.8920  -12.7600    7.5130 C.3     1  UNL1        0.0652
      7 C          25.0360  -14.0200    7.5160 C.2     1  UNL1        0.2494
      8 C          24.5030  -16.3490   10.5210 C.ar    1  UNL1        0.0001
      9 C          22.9810  -16.9090    8.7280 C.ar    1  UNL1        0.0001
     10 C          22.6680  -11.5320    8.4450 C.3     1  UNL1        0.0203
     11 C          24.6360   -9.9100    6.4910 C.ar    1  UNL1        0.0008
     12 C          25.2950   -8.6330    6.9640 C.ar    1  UNL1        0.0366
     13 C          26.5650   -8.5220    7.2070 C.ar    1  UNL1        0.1384
     14 C          26.8440  -10.8820    6.6500 C.ar    1  UNL1        0.0008
     15 C          28.5490   -5.4360    7.6780 C.3     1  UNL1        0.1162
     16 C          27.8570   -6.6340    5.8300 C.3     1  UNL1        0.0623
     17 C          24.0810  -11.5290    3.4990 C.ar    1  UNL1        0.0006
     18 C          24.5560  -15.0330    8.5430 C.ar    1  UNL1        0.0536
     19 C          25.0880  -15.2240    9.6880 C.ar    1  UNL1        0.0045
     20 C          23.5520  -17.1190   10.0960 C.ar    1  UNL1        0.0000
     21 C          23.4470  -15.9140    8.0320 C.ar    1  UNL1        0.0045
     22 C          22.3620  -12.8750    8.9690 C.3     1  UNL1        0.0203
     23 C          25.3590  -10.9540    6.3620 C.ar    1  UNL1        0.0001
     24 C          23.2230  -11.2680    2.5660 C.ar    1  UNL1        0.0417
     25 C          27.4160   -9.7560    7.0200 C.ar    1  UNL1        0.0366
     26 C          28.2480   -6.7980    7.1500 C.3     1  UNL1        0.1831
     27 C          28.3300   -5.2710    5.5140 C.3     1  UNL1        0.0760
     28 C          27.0160   -4.1690    6.7190 C.3     1  UNL1        0.0722
     29 C          21.7360  -11.4220    2.8260 C.ar    1  UNL1        0.1954
     30 C          26.1850   -3.7950    5.4230 C.3     1  UNL1        0.0188
     31 C          24.7140  -12.2390    5.8940 C.3     1  UNL1        0.1203
     32 N          28.1530   -4.6010    6.6780 N.3     1  UNL1       -0.2696
     33 O          26.0670  -14.1910    7.0380 O.2     1  UNL1       -0.2699
     34 O          20.8160  -11.1470    1.8780 O.3     1  UNL1       -0.2866
     35 O          27.0440   -7.2760    7.6550 O.3     1  UNL1       -0.4777
@<TRIPOS>BOND
     1     3     2   ar
     2     4     3   ar
     3     5     3    1
     4     6     5    1
     5     6     1    1
     6     7     1   am
     7    10     6    1
     8    12    11   ar
     9    13    12   ar
    10    17     4   ar
    11    18     7    1
    12    19    18   ar
    13    19     8   ar
    14    20     9   ar
    15    20     8   ar
    16    21     9   ar
    17    21    18   ar
    18    22    10    1
    19    22     6    1
    20    23    14   ar
    21    23    11   ar
    22    24    17   ar
    23    25    14   ar
    24    25    13   ar
    25    26    16    1
    26    26    15    1
    27    27    16    1
    28    29     2   ar
    29    29    24   ar
    30    30    28    1
    31    31     4    1
    32    31    23    1
    33    31     1    1
    34    32    28    1
    35    32    27    1
    36    32    15    1
    37    33     7    2
    38    34    29    1
    39    35    13    1
    40    26    35    1
