@<TRIPOS>MOLECULE
8DUC_TU9_A601
 36 41 0 0 0
SMALL
GASTEIGER

@<TRIPOS>ATOM
      1 N          24.0430  -13.2920    7.2210 N.am    1  UNL1       -0.2730
      2 C          21.2790  -12.0070    4.1680 C.ar    1  UNL1        0.0376
      3 C          22.3070  -12.2830    5.2890 C.ar    1  UNL1       -0.0195
      4 C          23.5330  -12.1860    5.0650 C.ar    1  UNL1       -0.0038
      5 C          21.7160  -12.7870    6.5700 C.3     1  UNL1        0.0444
      6 C          22.6420  -13.2190    7.6680 C.3     1  UNL1        0.0652
      7 C          25.0410  -14.1570    7.8410 C.2     1  UNL1        0.2494
      8 C          25.0070  -16.5470   10.8400 C.ar    1  UNL1        0.0001
      9 C          23.2750  -17.1870    9.1710 C.ar    1  UNL1        0.0001
     10 C          25.1810  -11.1930    6.5930 C.ar    1  UNL1        0.0001
     11 C          26.4710   -8.7950    7.3140 C.ar    1  UNL1        0.1385
     12 C          27.2630  -10.0590    7.1450 C.ar    1  UNL1        0.0366
     13 C          26.6700  -11.1620    6.8120 C.ar    1  UNL1        0.0008
     14 C          28.9020   -5.7330    7.3960 C.3     1  UNL1        0.0611
     15 C          28.7950   -3.7300    6.3120 C.3     1  UNL1        0.0723
     16 C          30.8090   -3.8900    5.6970 C.3     1  UNL1        0.0721
     17 C          23.9810  -11.7070    3.6940 C.ar    1  UNL1        0.0006
     18 C          24.7110  -15.2210    8.8830 C.ar    1  UNL1        0.0536
     19 C          25.3940  -15.3690    9.9810 C.ar    1  UNL1        0.0045
     20 C          24.0470  -17.3500   10.4690 C.ar    1  UNL1        0.0000
     21 C          23.6120  -16.1830    8.4360 C.ar    1  UNL1        0.0045
     22 C          24.4510  -10.1320    6.7690 C.ar    1  UNL1        0.0008
     23 C          25.1780   -8.8510    7.1630 C.ar    1  UNL1        0.0366
     24 C          23.1360  -11.4480    2.7590 C.ar    1  UNL1        0.0417
     25 C          27.7140   -6.6690    6.8240 C.3     1  UNL1        0.2067
     26 C          28.6200   -4.3930    7.6490 C.3     1  UNL1        0.0224
     27 C          29.9450   -5.7370    6.3040 C.3     1  UNL1        0.0758
     28 C          31.9610   -4.5340    4.8920 C.3     1  UNL1        0.0188
     29 C          21.6700  -11.5930    2.9630 C.ar    1  UNL1        0.1954
     30 C          22.2620  -13.7540    9.0670 C.3     1  UNL1        0.0203
     31 C          22.0620  -12.3460    8.8090 C.3     1  UNL1        0.0203
     32 C          24.5630  -12.4590    6.1570 C.3     1  UNL1        0.1203
     33 N          29.7790   -4.5100    5.6560 N.3     1  UNL1       -0.2726
     34 O          20.7840  -11.3020    1.9620 O.3     1  UNL1       -0.2866
     35 O          26.1330  -14.1490    7.4270 O.2     1  UNL1       -0.2699
     36 O          27.1490   -7.6040    7.7310 O.3     1  UNL1       -0.4754
@<TRIPOS>BOND
     1     3     2   ar
     2     4     3   ar
     3     5     3    1
     4     6     5    1
     5     6     1    1
     6     7     1   am
     7    12    11   ar
     8    13    10   ar
     9    13    12   ar
    10    17     4   ar
    11    18     7    1
    12    19     8   ar
    13    19    18   ar
    14    20     9   ar
    15    20     8   ar
    16    21     9   ar
    17    21    18   ar
    18    22    10   ar
    19    23    22   ar
    20    23    11   ar
    21    24    17   ar
    22    14    25    1
    23    26    14    1
    24    26    15    1
    25    27    14    1
    26    28    16    1
    27    29     2   ar
    28    29    24   ar
    29    30     6    1
    30    31    30    1
    31    31     6    1
    32    32     4    1
    33    32    10    1
    34    32     1    1
    35    33    27    1
    36    33    16    1
    37    33    15    1
    38    34    29    1
    39    35     7    2
    40    36    11    1
    41    36    25    1
