@<TRIPOS>MOLECULE
8DUK_TW6_C601
 32 36 0 0 0
SMALL
GASTEIGER

@<TRIPOS>ATOM
      1 N          24.3830  -12.7970    7.0960 N.am    1  UNL1       -0.2730
      2 C          21.4330  -11.8100    4.2060 C.ar    1  UNL1        0.0376
      3 C          22.5270  -12.0980    5.2170 C.ar    1  UNL1       -0.0195
      4 C          23.8310  -11.9460    4.9530 C.ar    1  UNL1       -0.0038
      5 C          21.9790  -12.5640    6.5860 C.3     1  UNL1        0.0444
      6 C          23.0630  -12.5060    7.6440 C.3     1  UNL1        0.0652
      7 C          25.2260  -13.8160    7.7080 C.2     1  UNL1        0.2494
      8 C          24.7240  -15.9480   10.9050 C.ar    1  UNL1        0.0001
      9 C          23.1400  -16.6450    9.1280 C.ar    1  UNL1        0.0001
     10 C          22.5900  -12.5290    9.1440 C.3     1  UNL1        0.0203
     11 C          27.0080  -10.8060    6.4170 C.ar    1  UNL1        0.0008
     12 C          27.6940   -9.4710    6.7160 C.ar    1  UNL1        0.0366
     13 C          26.9230   -8.3810    6.8100 C.ar    1  UNL1        0.1386
     14 C          24.7950   -9.6040    6.3570 C.ar    1  UNL1        0.0008
     15 C          28.8980   -5.4380    5.9780 C.3     1  UNL1        0.1359
     16 C          24.2750  -11.4730    3.5970 C.ar    1  UNL1        0.0006
     17 C          24.7470  -14.7630    8.8210 C.ar    1  UNL1        0.0536
     18 C          25.3070  -14.8780   10.0120 C.ar    1  UNL1        0.0045
     19 C          23.7310  -16.7410   10.5230 C.ar    1  UNL1        0.0000
     20 C          23.6270  -15.6960    8.3350 C.ar    1  UNL1        0.0045
     21 C          22.7540  -11.2190    8.4570 C.3     1  UNL1        0.0203
     22 C          25.6690  -10.8390    6.2640 C.ar    1  UNL1        0.0001
     23 C          23.3550  -11.2390    2.6980 C.ar    1  UNL1        0.0417
     24 C          25.4120   -8.4410    6.6270 C.ar    1  UNL1        0.0366
     25 C          27.8240   -6.5300    5.8460 C.3     1  UNL1        0.2241
     26 C          26.8140   -4.1980    5.6900 C.3     1  UNL1        0.1076
     27 C          21.8770  -11.4050    3.0060 C.ar    1  UNL1        0.1954
     28 C          24.9840  -12.1580    5.9450 C.3     1  UNL1        0.1203
     29 N          28.2700   -4.1200    5.9060 N.3     1  UNL1       -0.2126
     30 O          21.0020  -11.0720    2.0160 O.3     1  UNL1       -0.2866
     31 O          26.2940  -14.0040    7.2350 O.2     1  UNL1       -0.2699
     32 O          27.4950   -7.0980    7.0880 O.3     1  UNL1       -0.4739
@<TRIPOS>BOND
     1     3     2   ar
     2     4     3   ar
     3     5     3    1
     4     6     5    1
     5     6     1    1
     6     7     1   am
     7    10     6    1
     8    12    11   ar
     9    13    12   ar
    10    16     4   ar
    11    17     7    1
    12    18    17   ar
    13    18     8   ar
    14    19     9   ar
    15    19     8   ar
    16    20     9   ar
    17    20    17   ar
    18    21    10    1
    19    21     6    1
    20    22    14   ar
    21    22    11   ar
    22    23    16   ar
    23    24    14   ar
    24    24    13   ar
    25    25    15    1
    26    27     2   ar
    27    27    23   ar
    28    28     4    1
    29    28     1    1
    30    28    22    1
    31    29    26    1
    32    29    15    1
    33    30    27    1
    34    31     7    2
    35    32    13    1
    36    32    25    1
