@<TRIPOS>MOLECULE
8W03_OBT_D600
 58 62 0 0 0
SMALL
GASTEIGER

@<TRIPOS>ATOM
      1  C01       26.3090   -8.7290    6.4380 C.ar  600  OBT600     -0.0196
      2  C02       27.6070   -9.0100    6.2450 C.ar  600  OBT600      0.1169
      3  C03       27.9880  -10.2930    6.4090 C.ar  600  OBT600     -0.0196
      4  C04       27.0950  -11.2510    6.7370 C.ar  600  OBT600     -0.0508
      5  C05       25.7890  -10.9750    6.9210 C.ar  600  OBT600     -0.0188
      6  C06       25.4320   -9.6910    6.7690 C.ar  600  OBT600     -0.0508
      7  O01       28.4920   -8.0410    5.8980 O.3   600  OBT600     -0.5068
      8  C07       24.9010  -11.9210    7.2370 C.2   600  OBT600     -0.0036
      9  C08       23.7230  -12.2820    6.7190 C.2   600  OBT600     -0.0054
     10  C09       23.2900  -13.4630    7.5600 C.3   600  OBT600      0.0873
     11  C10       23.0090  -11.8620    5.6640 C.ar  600  OBT600     -0.0188
     12  C11       25.1420  -12.8680    8.3800 C.3   600  OBT600      0.1092
     13  C12       21.6530  -11.9210    5.5700 C.ar  600  OBT600     -0.0508
     14  C13       21.0100  -11.5100    4.4430 C.ar  600  OBT600     -0.0196
     15  C14       21.6850  -11.0170    3.3520 C.ar  600  OBT600      0.1169
     16  C15       23.0300  -10.9620    3.4350 C.ar  600  OBT600     -0.0196
     17  C16       23.6580  -11.3750    4.5660 C.ar  600  OBT600     -0.0508
     18  O02       21.0540  -10.6020    2.2130 O.3   600  OBT600     -0.5068
     19  C17       24.1990  -12.4710    9.5050 C.3   600  OBT600      0.1288
     20  C18       22.8640  -13.0070    8.9470 C.3   600  OBT600      0.0044
     21  S01       24.8560  -13.0920   11.1500 S.O2  600  OBT600      0.0514
     22  O03       24.5230  -14.0490    7.9140 O.3   600  OBT600     -0.3621
     23  N01       25.5860  -14.6500   11.2860 N.pl3 600  OBT600     -0.1984
     24  O04       23.5460  -12.9060   11.8050 O.2   600  OBT600     -0.1546
     25  O05       25.8470  -12.0060   11.2870 O.2   600  OBT600     -0.1546
     26  H1        25.9620   -7.6880    6.3230 H     600  OBT600      0.0654
     27  H2        29.0500  -10.5590    6.2710 H     600  OBT600      0.0654
     28  H3        27.4990  -12.2690    6.8450 H     600  OBT600      0.0625
     29  H4        24.3920   -9.3610    6.9090 H     600  OBT600      0.0625
     30  H5        28.0650   -7.4080    5.2900 H     600  OBT600      0.2921
     31  H6        22.6460  -14.2040    7.0440 H     600  OBT600      0.0647
     32  H7        26.1950  -13.0390    8.6710 H     600  OBT600      0.0667
     33  H8        21.0280  -12.3020    6.3950 H     600  OBT600      0.0625
     34  H9        19.9080  -11.5710    4.3980 H     600  OBT600      0.0654
     35  H10       23.6150  -10.5810    2.5820 H     600  OBT600      0.0654
     36  H11       24.7570  -11.2960    4.5520 H     600  OBT600      0.0625
     37  H12       20.1130  -10.8470    2.2870 H     600  OBT600      0.2921
     38  C19       26.2900  -14.9090   12.6050 C.3   600  OBT600      0.1296
     39  H13       24.0250  -11.3760    9.6250 H     600  OBT600      0.0585
     40  C20       27.4460  -13.9940   12.6990 C.3   600  OBT600      0.4069
     41  H14       22.0770  -12.2240    8.8720 H     600  OBT600      0.0313
     42  F1        27.2500  -12.8790   13.3310 F     600  OBT600     -0.1689
     43  H15       22.4590  -13.8640    9.5290 H     600  OBT600      0.0313
     44  F2        28.4250  -14.6350   13.2620 F     600  OBT600     -0.1689
     45  F3        27.8250  -13.6180   11.5080 F     600  OBT600     -0.1689
     46  C21       25.7480  -15.6220   10.4580 C.ar  600  OBT600      0.0513
     47  C22       24.9490  -16.6920   10.3080 C.ar  600  OBT600     -0.0377
     48  C23       25.2330  -17.6890    9.4620 C.ar  600  OBT600     -0.0416
     49  C24       26.3790  -17.6870    8.7470 C.ar  600  OBT600      0.0411
     50  C25       27.2180  -16.6490    8.9010 C.ar  600  OBT600     -0.0416
     51  C26       26.8970  -15.6670    9.7490 C.ar  600  OBT600     -0.0377
     52  H16       25.6540  -14.7610   13.5100 H     600  OBT600      0.0571
     53  H17       26.6600  -15.9520   12.7400 H     600  OBT600      0.0571
     54  H18       24.0110  -16.8190   10.8690 H     600  OBT600      0.0637
     55 CL1        26.7720  -18.9850    7.6540 Cl    600  OBT600     -0.0835
     56  H19       24.5190  -18.5230    9.3530 H     600  OBT600      0.0633
     57  H21       28.1640  -16.6000    8.3360 H     600  OBT600      0.0633
     58  H22       27.6530  -14.8710    9.8390 H     600  OBT600      0.0637
@<TRIPOS>BOND
     1    18    37    1
     2    18    15    1
     3    35    16    1
     4    15    16   ar
     5    15    14   ar
     6    16    17   ar
     7    34    14    1
     8    14    13   ar
     9    36    17    1
    10    17    11   ar
    11    30     7    1
    12    13    11   ar
    13    13    33    1
    14    11     9    1
    15     7     2    1
    16     2     3   ar
    17     2     1   ar
    18    27     3    1
    19    26     1    1
    20     3     4   ar
    21     1     6   ar
    22     9     8    2
    23     9    10    1
    24     4    28    1
    25     4     5   ar
    26     6    29    1
    27     6     5   ar
    28     5     8    1
    29    31    10    1
    30     8    12    1
    31    10    22    1
    32    10    20    1
    33    55    49    1
    34    22    12    1
    35    57    50    1
    36    12    32    1
    37    12    19    1
    38    49    50   ar
    39    49    48   ar
    40    41    20    1
    41    50    51   ar
    42    20    19    1
    43    20    43    1
    44    56    48    1
    45    48    47   ar
    46    19    39    1
    47    19    21    1
    48    51    58    1
    49    51    46   ar
    50    47    46   ar
    51    47    54    1
    52    46    23    1
    53    21    23    1
    54    21    25    2
    55    21    24    2
    56    23    38    1
    57    45    40    1
    58    38    40    1
    59    38    53    1
    60    38    52    1
    61    40    44    1
    62    40    42    1
