@<TRIPOS>MOLECULE
9BU1_A1ASN_B601
 36 42 0 0 0
SMALL
GASTEIGER

@<TRIPOS>ATOM
      1  N1        24.1040  -12.9920    7.0050 N.am  601  A1A601     -0.2730
      2  C4        21.2530  -12.0020    3.9740 C.ar  601  A1A601      0.0376
      3  C5        22.2810  -12.2800    5.0730 C.ar  601  A1A601     -0.0195
      4  C6        23.5600  -12.0040    4.8830 C.ar  601  A1A601     -0.0038
      5  C7        21.7650  -12.8850    6.3840 C.3   601  A1A601      0.0444
      6  C8        22.7730  -12.6540    7.4990 C.3   601  A1A601      0.0652
      7  C10       24.9340  -14.0880    7.5380 C.2   601  A1A601      0.2494
      8  C13       22.9000  -16.8980    9.2260 C.ar  601  A1A601      0.0001
      9  C15       24.5980  -16.0810   10.8400 C.ar  601  A1A601      0.0001
     10  C17       25.2420  -10.8880    6.3590 C.ar  601  A1A601      0.0001
     11  C20       26.5340  -10.7630    6.5790 C.ar  601  A1A601      0.0008
     12  C21       27.0840   -9.3920    7.0000 C.ar  601  A1A601      0.0366
     13  C22       26.2540   -8.3660    7.1320 C.ar  601  A1A601      0.1384
     14  C24       24.2890   -9.7000    6.5100 C.ar  601  A1A601      0.0008
     15  C26       28.4100   -5.3580    7.6210 C.3   601  A1A601     -0.0357
     16  C28       27.4660   -4.5590    6.9300 C.3   601  A1A601     -0.0902
     17  C1        24.0140  -11.4150    3.5440 C.ar  601  A1A601      0.0006
     18  C11       24.4410  -15.0680    8.6310 C.ar  601  A1A601      0.0536
     19  C12       23.4560  -15.8620    8.2580 C.ar  601  A1A601      0.0045
     20  C14       23.4410  -16.9900   10.4230 C.ar  601  A1A601      0.0000
     21  C16       25.0830  -15.1810   10.0080 C.ar  601  A1A601      0.0045
     22  C18       21.9560  -12.9590    8.7950 C.3   601  A1A601      0.0203
     23  C19       22.3620  -11.5610    8.5210 C.3   601  A1A601      0.0203
     24  C2        23.1270  -11.1740    2.5990 C.ar  601  A1A601      0.0417
     25  C23       24.7560   -8.5220    6.8730 C.ar  601  A1A601      0.0366
     26  C25       28.1070   -6.9280    7.3480 C.3   601  A1A601      0.1830
     27  C27       29.6050   -5.0130    6.9870 C.3   601  A1A601     -0.0902
     28  C29       28.9290   -3.0650    6.7300 C.3   601  A1A601     -0.0730
     29  C3        21.6490  -11.4870    2.8210 C.ar  601  A1A601      0.1954
     30  C30       29.1890   -2.1030    5.5460 C.3   601  A1A601     -0.0223
     31  C31       27.8500   -1.6650    4.9170 C.3   601  A1A601     -0.0022
     32  C9        24.6620  -12.2340    5.9230 C.3   601  A1A601      0.1203
     33  N2        28.7020   -4.1310    6.3750 N.4   601  A1A601      0.3896
     34  O1        20.7170  -11.2270    1.8150 O.3   601  A1A601     -0.2866
     35  O2        26.7280   -7.1020    7.5220 O.3   601  A1A601     -0.4777
     36  O3        25.9850  -14.2670    7.0620 O.2   601  A1A601     -0.2699
@<TRIPOS>BOND
     1    34    29    1
     2    24    29   ar
     3    24    17   ar
     4    29     2   ar
     5    17     4   ar
     6     2     3   ar
     7     4     3   ar
     8     4    32    1
     9    31    30    1
    10     3     5    1
    11    30    28    1
    12    32    10    1
    13    32     1    1
    14    10    14   ar
    15    10    11   ar
    16    33    28    1
    17    33    16    1
    18    33    27    1
    19    33    15    1
    20     5     6    1
    21    14    25   ar
    22    11    12   ar
    23    25    13   ar
    24    16    15    1
    25    27    15    1
    26    12    13   ar
    27     1     6    1
    28     1     7   am
    29    36     7    2
    30    13    35    1
    31    26    35    1
    32    26    15    1
    33     6    23    1
    34     6    22    1
    35     7    18    1
    36    19    18   ar
    37    19     8   ar
    38    23    22    1
    39    18    21   ar
    40     8    20   ar
    41    21     9   ar
    42    20     9   ar
