Z1912620065
     RDKit          3D

 51 53  0  0  0  0  0  0  0  0999 V2000
   -5.8151   -0.6918   -2.6523 C   0  0  0  0  0  0  0  0  0  0  0  0
   -5.2807   -1.9526   -1.9936 C   0  0  0  0  0  0  0  0  0  0  0  0
   -3.8241   -1.8365   -1.5385 C   0  0  0  0  0  0  0  0  0  0  0  0
   -3.4260   -3.1092   -1.0121 O   0  0  0  0  0  0  0  0  0  0  0  0
   -3.6057   -0.7616   -0.4486 C   0  0  0  0  0  0  0  0  0  0  0  0
   -2.2586   -0.8657    0.1640 N   0  0  0  0  0  0  0  0  0  0  0  0
   -1.1992   -0.4098   -0.7649 C   0  0  0  0  0  0  0  0  0  0  0  0
    0.2036   -0.4199   -0.1109 C   0  0  0  0  0  0  0  0  0  0  0  0
    0.2579    0.3992    1.1167 N   0  0  0  0  0  0  0  0  0  0  0  0
   -0.8018   -0.0495    2.0415 C   0  0  0  0  0  0  0  0  0  0  0  0
   -2.1997   -0.0303    1.3847 C   0  0  0  0  0  0  0  0  0  0  0  0
    1.5723    0.3190    1.7741 C   0  0  0  0  0  0  0  0  0  0  0  0
    2.6791    0.9915    0.9790 C   0  0  0  0  0  0  0  0  0  0  0  0
    2.6300    2.3958    0.8683 C   0  0  0  0  0  0  0  0  0  0  0  0
    3.6075    3.0885    0.1671 C   0  0  0  0  0  0  0  0  0  0  0  0
    4.6350    2.3737   -0.4290 C   0  0  0  0  0  0  0  0  0  0  0  0
    5.5949    3.0787   -1.1184 O   0  0  0  0  0  0  0  0  0  0  0  0
    3.7415    0.2736    0.3471 C   0  0  0  0  0  0  0  0  0  0  0  0
    4.7318    0.9884   -0.3620 C   0  0  0  0  0  0  0  0  0  0  0  0
    3.8957   -1.1286    0.3607 C   0  0  0  0  0  0  0  0  0  0  0  0
    4.9703   -1.7383   -0.2834 C   0  0  0  0  0  0  0  0  0  0  0  0
    5.8886   -0.9403   -0.9445 C   0  0  0  0  0  0  0  0  0  0  0  0
    5.7778    0.4055   -0.9885 N   0  0  0  0  0  0  0  0  0  0  0  0
    7.0641   -1.5587   -1.6401 C   0  0  0  0  0  0  0  0  0  0  0  0
   -6.8238   -0.8690   -3.0384 H   0  0  0  0  0  0  0  0  0  0  0  0
   -5.1804   -0.3868   -3.4907 H   0  0  0  0  0  0  0  0  0  0  0  0
   -5.8734    0.1375   -1.9412 H   0  0  0  0  0  0  0  0  0  0  0  0
   -5.3660   -2.7890   -2.6993 H   0  0  0  0  0  0  0  0  0  0  0  0
   -5.9182   -2.2229   -1.1421 H   0  0  0  0  0  0  0  0  0  0  0  0
   -3.1907   -1.6332   -2.4087 H   0  0  0  0  0  0  0  0  0  0  0  0
   -2.6961   -2.9011   -0.3923 H   0  0  0  0  0  0  0  0  0  0  0  0
   -3.7841    0.2440   -0.8473 H   0  0  0  0  0  0  0  0  0  0  0  0
   -4.3489   -0.9404    0.3397 H   0  0  0  0  0  0  0  0  0  0  0  0
   -1.1572   -1.0705   -1.6379 H   0  0  0  0  0  0  0  0  0  0  0  0
   -1.4169    0.6032   -1.1296 H   0  0  0  0  0  0  0  0  0  0  0  0
    0.4869   -1.4587    0.1070 H   0  0  0  0  0  0  0  0  0  0  0  0
    0.9123   -0.0352   -0.8531 H   0  0  0  0  0  0  0  0  0  0  0  0
   -0.5913   -1.0644    2.4062 H   0  0  0  0  0  0  0  0  0  0  0  0
   -0.8288    0.6130    2.9156 H   0  0  0  0  0  0  0  0  0  0  0  0
   -2.9228   -0.4068    2.1183 H   0  0  0  0  0  0  0  0  0  0  0  0
   -2.4756    1.0080    1.1552 H   0  0  0  0  0  0  0  0  0  0  0  0
    1.8193   -0.7143    2.0356 H   0  0  0  0  0  0  0  0  0  0  0  0
    1.5264    0.8472    2.7373 H   0  0  0  0  0  0  0  0  0  0  0  0
    1.8127    2.9486    1.3291 H   0  0  0  0  0  0  0  0  0  0  0  0
    3.5706    4.1701    0.0813 H   0  0  0  0  0  0  0  0  0  0  0  0
    6.2004    2.3788   -1.4461 H   0  0  0  0  0  0  0  0  0  0  0  0
    3.1828   -1.7725    0.8655 H   0  0  0  0  0  0  0  0  0  0  0  0
    5.0805   -2.8180   -0.2642 H   0  0  0  0  0  0  0  0  0  0  0  0
    7.7051   -2.0677   -0.9139 H   0  0  0  0  0  0  0  0  0  0  0  0
    6.7257   -2.2797   -2.3908 H   0  0  0  0  0  0  0  0  0  0  0  0
    7.6625   -0.7950   -2.1475 H   0  0  0  0  0  0  0  0  0  0  0  0
  1  2  1  0
  2  3  1  0
  3  4  1  0
  3  5  1  0
  5  6  1  0
  6  7  1  0
  7  8  1  0
  8  9  1  0
  9 10  1  0
 10 11  1  0
  9 12  1  0
 12 13  1  0
 13 14  2  0
 14 15  1  0
 15 16  2  0
 16 17  1  0
 13 18  1  0
 18 19  2  0
 18 20  1  0
 20 21  2  0
 21 22  1  0
 22 23  2  0
 22 24  1  0
 11  6  1  0
 19 16  1  0
 23 19  1  0
  1 25  1  0
  1 26  1  0
  1 27  1  0
  2 28  1  0
  2 29  1  0
  3 30  1  0
  4 31  1  0
  5 32  1  0
  5 33  1  0
  7 34  1  0
  7 35  1  0
  8 36  1  0
  8 37  1  0
 10 38  1  0
 10 39  1  0
 11 40  1  0
 11 41  1  0
 12 42  1  0
 12 43  1  0
 14 44  1  0
 15 45  1  0
 17 46  1  0
 20 47  1  0
 21 48  1  0
 24 49  1  0
 24 50  1  0
 24 51  1  0
M  END
>  <mol_id>  (1) 
Z1912620065

>  <drugclip_rank>  (1) 
1

>  <conformer>  (1) 
0

>  <align_rmsd>  (1) 
0.491

$$$$
OSSL_941018
     RDKit          3D

 42 44  0  0  0  0  0  0  0  0999 V2000
    5.7840    0.4911   -0.7949 N   0  0  0  0  0  0  0  0  0  0  0  0
    5.8040   -0.8422   -0.5898 C   0  0  0  0  0  0  0  0  0  0  0  0
    4.8080   -1.5301    0.0710 C   0  0  0  0  0  0  0  0  0  0  0  0
    3.7221   -0.8056    0.5523 C   0  0  0  0  0  0  0  0  0  0  0  0
    3.6434    0.5904    0.3678 C   0  0  0  0  0  0  0  0  0  0  0  0
    4.7229    1.1833   -0.3235 C   0  0  0  0  0  0  0  0  0  0  0  0
    2.5673    1.4089    0.8295 C   0  0  0  0  0  0  0  0  0  0  0  0
    2.6033    2.7969    0.5938 C   0  0  0  0  0  0  0  0  0  0  0  0
    3.6680    3.3719   -0.0887 C   0  0  0  0  0  0  0  0  0  0  0  0
    4.7004    2.5579   -0.5317 C   0  0  0  0  0  0  0  0  0  0  0  0
    5.7444    3.1505   -1.2039 O   0  0  0  0  0  0  0  0  0  0  0  0
    1.3782    0.8427    1.5902 C   0  0  0  0  0  0  0  0  0  0  0  0
    0.5467   -0.0704    0.7937 N   0  0  0  0  0  0  0  0  0  0  0  0
   -0.1980    0.6038   -0.2895 C   0  0  0  0  0  0  0  0  0  0  0  0
   -1.6903    0.8656    0.0168 C   0  0  0  0  0  0  0  0  0  0  0  0
   -2.4662   -0.3348    0.3921 N   0  0  0  0  0  0  0  0  0  0  0  0
   -1.5862   -1.3972    0.9239 C   0  0  0  0  0  0  0  0  0  0  0  0
   -0.3673   -0.8259    1.6783 C   0  0  0  0  0  0  0  0  0  0  0  0
   -3.3104   -0.8119   -0.7179 C   0  0  0  0  0  0  0  0  0  0  0  0
   -4.2495   -1.9791   -0.3550 C   0  0  0  0  0  0  0  0  0  0  0  0
   -3.5739   -3.2347   -0.3360 O   0  0  0  0  0  0  0  0  0  0  0  0
    6.6727   -1.3602   -0.9862 H   0  0  0  0  0  0  0  0  0  0  0  0
    4.8680   -2.6037    0.2078 H   0  0  0  0  0  0  0  0  0  0  0  0
    2.9299   -1.3440    1.0659 H   0  0  0  0  0  0  0  0  0  0  0  0
    1.7950    3.4375    0.9403 H   0  0  0  0  0  0  0  0  0  0  0  0
    3.6987    4.4409   -0.2750 H   0  0  0  0  0  0  0  0  0  0  0  0
    6.3388    2.3973   -1.4119 H   0  0  0  0  0  0  0  0  0  0  0  0
    0.7633    1.6565    1.9979 H   0  0  0  0  0  0  0  0  0  0  0  0
    1.7871    0.3172    2.4643 H   0  0  0  0  0  0  0  0  0  0  0  0
    0.2722    1.5454   -0.5929 H   0  0  0  0  0  0  0  0  0  0  0  0
   -0.1403   -0.0447   -1.1737 H   0  0  0  0  0  0  0  0  0  0  0  0
   -2.1475    1.3899   -0.8317 H   0  0  0  0  0  0  0  0  0  0  0  0
   -1.7491    1.5683    0.8584 H   0  0  0  0  0  0  0  0  0  0  0  0
   -1.2148   -2.0440    0.1177 H   0  0  0  0  0  0  0  0  0  0  0  0
   -2.1605   -2.0238    1.6156 H   0  0  0  0  0  0  0  0  0  0  0  0
    0.1913   -1.6523    2.1332 H   0  0  0  0  0  0  0  0  0  0  0  0
   -0.7343   -0.1944    2.4994 H   0  0  0  0  0  0  0  0  0  0  0  0
   -3.9535    0.0196   -1.0325 H   0  0  0  0  0  0  0  0  0  0  0  0
   -2.6846   -1.0926   -1.5745 H   0  0  0  0  0  0  0  0  0  0  0  0
   -5.0495   -2.0515   -1.0995 H   0  0  0  0  0  0  0  0  0  0  0  0
   -4.7194   -1.8211    0.6212 H   0  0  0  0  0  0  0  0  0  0  0  0
   -3.1377   -3.3441   -1.1978 H   0  0  0  0  0  0  0  0  0  0  0  0
  1  2  2  0
  2  3  1  0
  3  4  2  0
  4  5  1  0
  5  6  2  0
  5  7  1  0
  7  8  2  0
  8  9  1  0
  9 10  2  0
 10 11  1  0
  7 12  1  0
 12 13  1  0
 13 14  1  0
 14 15  1  0
 15 16  1  0
 16 17  1  0
 17 18  1  0
 16 19  1  0
 19 20  1  0
 20 21  1  0
  6  1  1  0
 10  6  1  0
 18 13  1  0
  2 22  1  0
  3 23  1  0
  4 24  1  0
  8 25  1  0
  9 26  1  0
 11 27  1  0
 12 28  1  0
 12 29  1  0
 14 30  1  0
 14 31  1  0
 15 32  1  0
 15 33  1  0
 17 34  1  0
 17 35  1  0
 18 36  1  0
 18 37  1  0
 19 38  1  0
 19 39  1  0
 20 40  1  0
 20 41  1  0
 21 42  1  0
M  END
>  <mol_id>  (2) 
OSSL_941018

>  <drugclip_rank>  (2) 
2

>  <conformer>  (2) 
17

>  <align_rmsd>  (2) 
0.535

$$$$
OSSM_336093
     RDKit          3D

 42 44  0  0  0  0  0  0  0  0999 V2000
   -3.4430   -3.3413   -0.4902 O   0  0  0  0  0  0  0  0  0  0  0  0
   -2.7138   -2.4637    0.2852 C   0  0  0  0  0  0  0  0  0  0  0  0
   -3.3728   -1.2328    0.8115 C   0  0  0  0  0  0  0  0  0  0  0  0
   -4.5458   -0.9528    0.5947 O   0  0  0  0  0  0  0  0  0  0  0  0
   -2.5339   -0.3343    1.6291 C   0  0  0  0  0  0  0  0  0  0  0  0
   -1.2465   -0.6412    1.8489 C   0  0  0  0  0  0  0  0  0  0  0  0
   -0.6654   -1.8077    1.3703 O   0  0  0  0  0  0  0  0  0  0  0  0
   -1.4274   -2.6550    0.6016 C   0  0  0  0  0  0  0  0  0  0  0  0
   -0.3400    0.2186    2.6997 C   0  0  0  0  0  0  0  0  0  0  0  0
    0.6458    1.0547    2.0080 N   0  0  0  0  0  0  0  0  0  0  0  0
    1.6975    0.2805    1.3362 C   0  0  0  0  0  0  0  0  0  0  0  0
    0.0484    2.0227    1.0831 C   0  0  0  0  0  0  0  0  0  0  0  0
    1.0868    3.0766    0.6718 C   0  0  0  0  0  0  0  0  0  0  0  0
    2.4093    2.4722    0.2680 C   0  0  0  0  0  0  0  0  0  0  0  0
    2.7191    1.1531    0.6328 C   0  0  0  0  0  0  0  0  0  0  0  0
    3.3562    3.2483   -0.4170 C   0  0  0  0  0  0  0  0  0  0  0  0
    4.6017    2.7138   -0.7649 C   0  0  0  0  0  0  0  0  0  0  0  0
    5.5806    3.4017   -1.4397 O   0  0  0  0  0  0  0  0  0  0  0  0
    5.3135    4.7503   -1.7944 C   0  0  0  0  0  0  0  0  0  0  0  0
    4.9096    1.3847   -0.4150 C   0  0  0  0  0  0  0  0  0  0  0  0
    3.9657    0.6148    0.2751 C   0  0  0  0  0  0  0  0  0  0  0  0
    6.1485    0.9318   -0.7984 O   0  0  0  0  0  0  0  0  0  0  0  0
    6.5357   -0.3673   -0.3766 C   0  0  0  0  0  0  0  0  0  0  0  0
   -2.8735   -4.0823   -0.7520 H   0  0  0  0  0  0  0  0  0  0  0  0
   -3.0099    0.5578    2.0146 H   0  0  0  0  0  0  0  0  0  0  0  0
   -0.8378   -3.5044    0.2870 H   0  0  0  0  0  0  0  0  0  0  0  0
    0.1809   -0.4304    3.4166 H   0  0  0  0  0  0  0  0  0  0  0  0
   -0.9527    0.8761    3.3317 H   0  0  0  0  0  0  0  0  0  0  0  0
    1.2793   -0.3916    0.5778 H   0  0  0  0  0  0  0  0  0  0  0  0
    2.2196   -0.3281    2.0848 H   0  0  0  0  0  0  0  0  0  0  0  0
   -0.3442    1.5207    0.1888 H   0  0  0  0  0  0  0  0  0  0  0  0
   -0.7916    2.5451    1.5574 H   0  0  0  0  0  0  0  0  0  0  0  0
    1.2680    3.7567    1.5138 H   0  0  0  0  0  0  0  0  0  0  0  0
    0.6798    3.6686   -0.1566 H   0  0  0  0  0  0  0  0  0  0  0  0
    3.0946    4.2716   -0.6654 H   0  0  0  0  0  0  0  0  0  0  0  0
    4.4650    4.8172   -2.4833 H   0  0  0  0  0  0  0  0  0  0  0  0
    5.1527    5.3689   -0.9053 H   0  0  0  0  0  0  0  0  0  0  0  0
    6.1939    5.1400   -2.3144 H   0  0  0  0  0  0  0  0  0  0  0  0
    4.1745   -0.4149    0.5462 H   0  0  0  0  0  0  0  0  0  0  0  0
    5.8988   -1.1342   -0.8293 H   0  0  0  0  0  0  0  0  0  0  0  0
    7.5593   -0.5402   -0.7229 H   0  0  0  0  0  0  0  0  0  0  0  0
    6.5370   -0.4466    0.7155 H   0  0  0  0  0  0  0  0  0  0  0  0
  1  2  1  0
  2  3  1  0
  3  4  2  0
  3  5  1  0
  5  6  2  0
  6  7  1  0
  7  8  1  0
  6  9  1  0
  9 10  1  0
 10 11  1  0
 10 12  1  0
 12 13  1  0
 13 14  1  0
 14 15  2  0
 14 16  1  0
 16 17  2  0
 17 18  1  0
 18 19  1  0
 17 20  1  0
 20 21  2  0
 20 22  1  0
 22 23  1  0
  8  2  2  0
 15 11  1  0
 21 15  1  0
  1 24  1  0
  5 25  1  0
  8 26  1  0
  9 27  1  0
  9 28  1  0
 11 29  1  0
 11 30  1  0
 12 31  1  0
 12 32  1  0
 13 33  1  0
 13 34  1  0
 16 35  1  0
 19 36  1  0
 19 37  1  0
 19 38  1  0
 21 39  1  0
 23 40  1  0
 23 41  1  0
 23 42  1  0
M  END
>  <mol_id>  (3) 
OSSM_336093

>  <drugclip_rank>  (3) 
3

>  <conformer>  (3) 
21

>  <align_rmsd>  (3) 
0.628

$$$$
MCULE-8173341992
     RDKit          3D

 42 44  0  0  0  0  0  0  0  0999 V2000
   -2.5917    0.0006    1.0851 C   0  0  0  0  0  0  0  0  0  0  0  0
   -1.4266   -0.3278    1.6632 C   0  0  0  0  0  0  0  0  0  0  0  0
   -0.6480    0.6352    2.5266 C   0  0  0  0  0  0  0  0  0  0  0  0
    0.3420    1.4302    1.7820 N   0  0  0  0  0  0  0  0  0  0  0  0
    0.8940    2.4893    2.6429 C   0  0  0  0  0  0  0  0  0  0  0  0
    1.7696    3.4501    1.8292 C   0  0  0  0  0  0  0  0  0  0  0  0
    2.7847    2.7252    0.9843 C   0  0  0  0  0  0  0  0  0  0  0  0
    2.6003    1.3685    0.6844 C   0  0  0  0  0  0  0  0  0  0  0  0
    3.5419    0.7100   -0.1237 C   0  0  0  0  0  0  0  0  0  0  0  0
    4.6420    1.3959   -0.6520 C   0  0  0  0  0  0  0  0  0  0  0  0
    4.8130    2.7635   -0.3630 C   0  0  0  0  0  0  0  0  0  0  0  0
    3.8809    3.4183    0.4495 C   0  0  0  0  0  0  0  0  0  0  0  0
    5.9161    3.3642   -0.9187 O   0  0  0  0  0  0  0  0  0  0  0  0
    6.0924    4.7550   -0.6944 C   0  0  0  0  0  0  0  0  0  0  0  0
    5.6034    0.8230   -1.4484 O   0  0  0  0  0  0  0  0  0  0  0  0
    5.4038   -0.5211   -1.8596 C   0  0  0  0  0  0  0  0  0  0  0  0
    1.4414    0.5862    1.2719 C   0  0  0  0  0  0  0  0  0  0  0  0
   -0.8695   -1.5956    1.5600 O   0  0  0  0  0  0  0  0  0  0  0  0
   -1.5214   -2.5381    0.8008 C   0  0  0  0  0  0  0  0  0  0  0  0
   -2.6799   -2.3457    0.1583 C   0  0  0  0  0  0  0  0  0  0  0  0
   -3.3023   -3.3229   -0.5911 O   0  0  0  0  0  0  0  0  0  0  0  0
   -3.3160   -1.0006    0.2777 C   0  0  0  0  0  0  0  0  0  0  0  0
   -4.3853   -0.7154   -0.2487 O   0  0  0  0  0  0  0  0  0  0  0  0
   -3.0402    0.9819    1.1661 H   0  0  0  0  0  0  0  0  0  0  0  0
   -1.3712    1.3168    2.9958 H   0  0  0  0  0  0  0  0  0  0  0  0
   -0.1768    0.0893    3.3552 H   0  0  0  0  0  0  0  0  0  0  0  0
    1.4746    2.0546    3.4682 H   0  0  0  0  0  0  0  0  0  0  0  0
    0.0851    3.0781    3.0930 H   0  0  0  0  0  0  0  0  0  0  0  0
    2.2783    4.1337    2.5192 H   0  0  0  0  0  0  0  0  0  0  0  0
    1.1367    4.0519    1.1648 H   0  0  0  0  0  0  0  0  0  0  0  0
    3.3928   -0.3458   -0.3248 H   0  0  0  0  0  0  0  0  0  0  0  0
    3.9828    4.4728    0.6838 H   0  0  0  0  0  0  0  0  0  0  0  0
    6.9976    5.0671   -1.2243 H   0  0  0  0  0  0  0  0  0  0  0  0
    6.2413    4.9674    0.3694 H   0  0  0  0  0  0  0  0  0  0  0  0
    5.2548    5.3314   -1.1009 H   0  0  0  0  0  0  0  0  0  0  0  0
    5.4360   -1.2031   -1.0038 H   0  0  0  0  0  0  0  0  0  0  0  0
    4.4693   -0.6311   -2.4197 H   0  0  0  0  0  0  0  0  0  0  0  0
    6.2257   -0.7915   -2.5296 H   0  0  0  0  0  0  0  0  0  0  0  0
    1.0506   -0.0632    0.4798 H   0  0  0  0  0  0  0  0  0  0  0  0
    1.8446   -0.0498    2.0715 H   0  0  0  0  0  0  0  0  0  0  0  0
   -0.9644   -3.4642    0.7970 H   0  0  0  0  0  0  0  0  0  0  0  0
   -2.7626   -4.1289   -0.5724 H   0  0  0  0  0  0  0  0  0  0  0  0
  1  2  2  0
  2  3  1  0
  3  4  1  0
  4  5  1  0
  5  6  1  0
  6  7  1  0
  7  8  2  0
  8  9  1  0
  9 10  2  0
 10 11  1  0
 11 12  2  0
 11 13  1  0
 13 14  1  0
 10 15  1  0
 15 16  1  0
  8 17  1  0
  2 18  1  0
 18 19  1  0
 19 20  2  0
 20 21  1  0
 20 22  1  0
 22 23  2  0
 22  1  1  0
 17  4  1  0
 12  7  1  0
  1 24  1  0
  3 25  1  0
  3 26  1  0
  5 27  1  0
  5 28  1  0
  6 29  1  0
  6 30  1  0
  9 31  1  0
 12 32  1  0
 14 33  1  0
 14 34  1  0
 14 35  1  0
 16 36  1  0
 16 37  1  0
 16 38  1  0
 17 39  1  0
 17 40  1  0
 19 41  1  0
 21 42  1  0
M  END
>  <mol_id>  (4) 
MCULE-8173341992

>  <drugclip_rank>  (4) 
4

>  <conformer>  (4) 
19

>  <align_rmsd>  (4) 
0.663

$$$$
STL426080
     RDKit          3D

 42 44  0  0  0  0  0  0  0  0999 V2000
   -3.4430   -3.3413   -0.4902 O   0  0  0  0  0  0  0  0  0  0  0  0
   -2.7138   -2.4637    0.2852 C   0  0  0  0  0  0  0  0  0  0  0  0
   -3.3728   -1.2328    0.8115 C   0  0  0  0  0  0  0  0  0  0  0  0
   -4.5458   -0.9528    0.5947 O   0  0  0  0  0  0  0  0  0  0  0  0
   -2.5339   -0.3343    1.6291 C   0  0  0  0  0  0  0  0  0  0  0  0
   -1.2465   -0.6412    1.8489 C   0  0  0  0  0  0  0  0  0  0  0  0
   -0.6654   -1.8077    1.3703 O   0  0  0  0  0  0  0  0  0  0  0  0
   -1.4274   -2.6550    0.6016 C   0  0  0  0  0  0  0  0  0  0  0  0
   -0.3400    0.2186    2.6997 C   0  0  0  0  0  0  0  0  0  0  0  0
    0.6458    1.0547    2.0080 N   0  0  0  0  0  0  0  0  0  0  0  0
    1.6975    0.2805    1.3362 C   0  0  0  0  0  0  0  0  0  0  0  0
    0.0484    2.0227    1.0831 C   0  0  0  0  0  0  0  0  0  0  0  0
    1.0868    3.0766    0.6718 C   0  0  0  0  0  0  0  0  0  0  0  0
    2.4093    2.4722    0.2680 C   0  0  0  0  0  0  0  0  0  0  0  0
    2.7191    1.1531    0.6328 C   0  0  0  0  0  0  0  0  0  0  0  0
    3.3562    3.2483   -0.4170 C   0  0  0  0  0  0  0  0  0  0  0  0
    4.6017    2.7138   -0.7649 C   0  0  0  0  0  0  0  0  0  0  0  0
    5.5806    3.4017   -1.4397 O   0  0  0  0  0  0  0  0  0  0  0  0
    5.3135    4.7503   -1.7944 C   0  0  0  0  0  0  0  0  0  0  0  0
    4.9096    1.3847   -0.4150 C   0  0  0  0  0  0  0  0  0  0  0  0
    3.9657    0.6148    0.2751 C   0  0  0  0  0  0  0  0  0  0  0  0
    6.1485    0.9318   -0.7984 O   0  0  0  0  0  0  0  0  0  0  0  0
    6.5357   -0.3673   -0.3766 C   0  0  0  0  0  0  0  0  0  0  0  0
   -2.8735   -4.0823   -0.7520 H   0  0  0  0  0  0  0  0  0  0  0  0
   -3.0099    0.5578    2.0146 H   0  0  0  0  0  0  0  0  0  0  0  0
   -0.8378   -3.5044    0.2870 H   0  0  0  0  0  0  0  0  0  0  0  0
    0.1809   -0.4304    3.4166 H   0  0  0  0  0  0  0  0  0  0  0  0
   -0.9527    0.8761    3.3317 H   0  0  0  0  0  0  0  0  0  0  0  0
    1.2793   -0.3916    0.5778 H   0  0  0  0  0  0  0  0  0  0  0  0
    2.2196   -0.3281    2.0848 H   0  0  0  0  0  0  0  0  0  0  0  0
   -0.3442    1.5207    0.1888 H   0  0  0  0  0  0  0  0  0  0  0  0
   -0.7916    2.5451    1.5574 H   0  0  0  0  0  0  0  0  0  0  0  0
    1.2680    3.7567    1.5138 H   0  0  0  0  0  0  0  0  0  0  0  0
    0.6798    3.6686   -0.1566 H   0  0  0  0  0  0  0  0  0  0  0  0
    3.0946    4.2716   -0.6654 H   0  0  0  0  0  0  0  0  0  0  0  0
    4.4650    4.8172   -2.4833 H   0  0  0  0  0  0  0  0  0  0  0  0
    5.1527    5.3689   -0.9053 H   0  0  0  0  0  0  0  0  0  0  0  0
    6.1939    5.1400   -2.3144 H   0  0  0  0  0  0  0  0  0  0  0  0
    4.1745   -0.4149    0.5462 H   0  0  0  0  0  0  0  0  0  0  0  0
    5.8988   -1.1342   -0.8293 H   0  0  0  0  0  0  0  0  0  0  0  0
    7.5593   -0.5402   -0.7229 H   0  0  0  0  0  0  0  0  0  0  0  0
    6.5370   -0.4466    0.7155 H   0  0  0  0  0  0  0  0  0  0  0  0
  1  2  1  0
  2  3  1  0
  3  4  2  0
  3  5  1  0
  5  6  2  0
  6  7  1  0
  7  8  1  0
  6  9  1  0
  9 10  1  0
 10 11  1  0
 10 12  1  0
 12 13  1  0
 13 14  1  0
 14 15  2  0
 14 16  1  0
 16 17  2  0
 17 18  1  0
 18 19  1  0
 17 20  1  0
 20 21  2  0
 20 22  1  0
 22 23  1  0
  8  2  2  0
 15 11  1  0
 21 15  1  0
  1 24  1  0
  5 25  1  0
  8 26  1  0
  9 27  1  0
  9 28  1  0
 11 29  1  0
 11 30  1  0
 12 31  1  0
 12 32  1  0
 13 33  1  0
 13 34  1  0
 16 35  1  0
 19 36  1  0
 19 37  1  0
 19 38  1  0
 21 39  1  0
 23 40  1  0
 23 41  1  0
 23 42  1  0
M  END
>  <mol_id>  (5) 
STL426080

>  <drugclip_rank>  (5) 
5

>  <conformer>  (5) 
21

>  <align_rmsd>  (5) 
0.628

$$$$
FCG2879657833
     RDKit          3D

 41 42  0  0  0  0  0  0  0  0999 V2000
   -4.0493   -0.5358   -0.6266 C   0  0  0  0  0  0  0  0  0  0  0  0
   -3.1398   -0.8959    0.4635 N   0  0  0  0  0  0  0  0  0  0  0  0
   -3.5919   -2.1396    1.0937 C   0  0  0  0  0  0  0  0  0  0  0  0
   -3.0372    0.1742    1.4742 C   0  0  0  0  0  0  0  0  0  0  0  0
   -2.3668    1.4616    0.9503 C   0  0  0  0  0  0  0  0  0  0  0  0
   -2.0342    2.4130    2.0258 N   0  0  0  0  0  0  0  0  0  0  0  0
   -3.1519    3.1480    2.5993 C   0  0  0  0  0  0  0  0  0  0  0  0
   -0.7750    3.0139    2.1352 C   0  0  0  0  0  0  0  0  0  0  0  0
   -0.6104    4.1466    2.5934 O   0  0  0  0  0  0  0  0  0  0  0  0
    0.4448    2.2992    1.6832 C   0  0  0  0  0  0  0  0  0  0  0  0
    1.4651    3.0097    1.0296 C   0  0  0  0  0  0  0  0  0  0  0  0
    1.3609    4.3677    0.8221 O   0  0  0  0  0  0  0  0  0  0  0  0
    0.6193    0.9409    1.9597 C   0  0  0  0  0  0  0  0  0  0  0  0
    1.7695    0.2806    1.5233 C   0  0  0  0  0  0  0  0  0  0  0  0
    2.7736    0.9679    0.8231 C   0  0  0  0  0  0  0  0  0  0  0  0
    2.6294    2.3549    0.5723 C   0  0  0  0  0  0  0  0  0  0  0  0
    3.9259    0.2974    0.3783 C   0  0  0  0  0  0  0  0  0  0  0  0
    4.9333    0.9785   -0.3072 C   0  0  0  0  0  0  0  0  0  0  0  0
    4.7917    2.3377   -0.5487 C   0  0  0  0  0  0  0  0  0  0  0  0
    3.6610    3.0234   -0.1179 C   0  0  0  0  0  0  0  0  0  0  0  0
    5.7511    3.0435   -1.2129 O   0  0  0  0  0  0  0  0  0  0  0  0
   -3.6731    0.3262   -1.1865 H   0  0  0  0  0  0  0  0  0  0  0  0
   -4.1258   -1.3558   -1.3500 H   0  0  0  0  0  0  0  0  0  0  0  0
   -5.0571   -0.3035   -0.2641 H   0  0  0  0  0  0  0  0  0  0  0  0
   -3.6264   -2.9531    0.3604 H   0  0  0  0  0  0  0  0  0  0  0  0
   -4.5860   -2.0372    1.5440 H   0  0  0  0  0  0  0  0  0  0  0  0
   -2.8894   -2.4540    1.8737 H   0  0  0  0  0  0  0  0  0  0  0  0
   -2.4343   -0.1933    2.3144 H   0  0  0  0  0  0  0  0  0  0  0  0
   -4.0277    0.4071    1.8852 H   0  0  0  0  0  0  0  0  0  0  0  0
   -1.4747    1.2090    0.3710 H   0  0  0  0  0  0  0  0  0  0  0  0
   -3.0332    1.9884    0.2564 H   0  0  0  0  0  0  0  0  0  0  0  0
   -3.9463    2.4554    2.8868 H   0  0  0  0  0  0  0  0  0  0  0  0
   -2.8378    3.7010    3.4898 H   0  0  0  0  0  0  0  0  0  0  0  0
   -3.5280    3.8574    1.8559 H   0  0  0  0  0  0  0  0  0  0  0  0
    0.6848    4.7130    1.4464 H   0  0  0  0  0  0  0  0  0  0  0  0
   -0.1293    0.3878    2.5189 H   0  0  0  0  0  0  0  0  0  0  0  0
    1.8772   -0.7810    1.7382 H   0  0  0  0  0  0  0  0  0  0  0  0
    4.0484   -0.7674    0.5654 H   0  0  0  0  0  0  0  0  0  0  0  0
    5.8120    0.4350   -0.6390 H   0  0  0  0  0  0  0  0  0  0  0  0
    3.5799    4.0889   -0.3228 H   0  0  0  0  0  0  0  0  0  0  0  0
    6.4763    2.4417   -1.4456 H   0  0  0  0  0  0  0  0  0  0  0  0
  1  2  1  0
  2  3  1  0
  2  4  1  0
  4  5  1  0
  5  6  1  0
  6  7  1  0
  6  8  1  0
  8  9  2  0
  8 10  1  0
 10 11  2  0
 11 12  1  0
 10 13  1  0
 13 14  2  0
 14 15  1  0
 15 16  2  0
 15 17  1  0
 17 18  2  0
 18 19  1  0
 19 20  2  0
 19 21  1  0
 16 11  1  0
 20 16  1  0
  1 22  1  0
  1 23  1  0
  1 24  1  0
  3 25  1  0
  3 26  1  0
  3 27  1  0
  4 28  1  0
  4 29  1  0
  5 30  1  0
  5 31  1  0
  7 32  1  0
  7 33  1  0
  7 34  1  0
 12 35  1  0
 13 36  1  0
 14 37  1  0
 17 38  1  0
 18 39  1  0
 20 40  1  0
 21 41  1  0
M  END
>  <mol_id>  (6) 
FCG2879657833

>  <drugclip_rank>  (6) 
6

>  <conformer>  (6) 
6

>  <align_rmsd>  (6) 
0.412

$$$$
FCG2880127876
     RDKit          3D

 45 47  0  0  0  0  0  0  0  0999 V2000
    4.5839    8.5716    1.7519 C   0  0  0  0  0  0  0  0  0  0  0  0
    5.3883    7.7325    0.8721 N   0  0  0  0  0  0  0  0  0  0  0  0
    4.8663    7.7288   -0.5078 C   0  0  0  0  0  0  0  0  0  0  0  0
    3.6602    6.8077   -0.7495 C   0  0  0  0  0  0  0  0  0  0  0  0
    3.8877    5.4456   -0.2667 N   0  0  0  0  0  0  0  0  0  0  0  0
    4.4228    5.3310    1.1080 C   0  0  0  0  0  0  0  0  0  0  0  0
    3.2861    5.4380    2.1335 C   0  0  0  0  0  0  0  0  0  0  0  0
    5.5781    6.3536    1.3816 C   0  0  0  0  0  0  0  0  0  0  0  0
    6.8959    5.8094    0.7976 C   0  0  0  0  0  0  0  0  0  0  0  0
    3.2570    4.4071   -0.9522 C   0  0  0  0  0  0  0  0  0  0  0  0
    2.5299    4.5793   -1.9297 O   0  0  0  0  0  0  0  0  0  0  0  0
    3.4275    3.0163   -0.4838 C   0  0  0  0  0  0  0  0  0  0  0  0
    4.6591    2.3550   -0.5483 C   0  0  0  0  0  0  0  0  0  0  0  0
    5.7458    3.0222   -1.0554 O   0  0  0  0  0  0  0  0  0  0  0  0
    2.2894    2.3316   -0.0557 C   0  0  0  0  0  0  0  0  0  0  0  0
    2.3922    1.0021    0.3534 C   0  0  0  0  0  0  0  0  0  0  0  0
    3.6293    0.3376    0.3374 C   0  0  0  0  0  0  0  0  0  0  0  0
    4.7908    1.0163   -0.1135 C   0  0  0  0  0  0  0  0  0  0  0  0
    3.7244   -0.9967    0.7641 C   0  0  0  0  0  0  0  0  0  0  0  0
    4.9499   -1.6614    0.7632 C   0  0  0  0  0  0  0  0  0  0  0  0
    6.0894   -0.9950    0.3418 C   0  0  0  0  0  0  0  0  0  0  0  0
    6.0241    0.3262   -0.0930 C   0  0  0  0  0  0  0  0  0  0  0  0
    7.2692   -1.6774    0.3739 O   0  0  0  0  0  0  0  0  0  0  0  0
    4.6330    9.6149    1.4197 H   0  0  0  0  0  0  0  0  0  0  0  0
    3.5303    8.2873    1.7845 H   0  0  0  0  0  0  0  0  0  0  0  0
    4.9787    8.5574    2.7737 H   0  0  0  0  0  0  0  0  0  0  0  0
    5.6779    7.4162   -1.1767 H   0  0  0  0  0  0  0  0  0  0  0  0
    4.6169    8.7499   -0.8226 H   0  0  0  0  0  0  0  0  0  0  0  0
    2.7680    7.1942   -0.2438 H   0  0  0  0  0  0  0  0  0  0  0  0
    3.4379    6.7938   -1.8225 H   0  0  0  0  0  0  0  0  0  0  0  0
    4.8402    4.3286    1.2397 H   0  0  0  0  0  0  0  0  0  0  0  0
    2.5948    4.5949    2.0310 H   0  0  0  0  0  0  0  0  0  0  0  0
    3.6784    5.4182    3.1553 H   0  0  0  0  0  0  0  0  0  0  0  0
    2.6894    6.3439    2.0095 H   0  0  0  0  0  0  0  0  0  0  0  0
    5.7500    6.3992    2.4657 H   0  0  0  0  0  0  0  0  0  0  0  0
    7.7246    6.5001    0.9909 H   0  0  0  0  0  0  0  0  0  0  0  0
    7.1551    4.8533    1.2664 H   0  0  0  0  0  0  0  0  0  0  0  0
    6.8364    5.6424   -0.2826 H   0  0  0  0  0  0  0  0  0  0  0  0
    6.1217    2.4563   -1.7524 H   0  0  0  0  0  0  0  0  0  0  0  0
    1.3228    2.8304   -0.0502 H   0  0  0  0  0  0  0  0  0  0  0  0
    1.4930    0.4862    0.6853 H   0  0  0  0  0  0  0  0  0  0  0  0
    2.8411   -1.5325    1.1059 H   0  0  0  0  0  0  0  0  0  0  0  0
    5.0139   -2.6929    1.0981 H   0  0  0  0  0  0  0  0  0  0  0  0
    6.9340    0.8332   -0.3994 H   0  0  0  0  0  0  0  0  0  0  0  0
    7.9864   -1.0850    0.0950 H   0  0  0  0  0  0  0  0  0  0  0  0
  1  2  1  0
  2  3  1  0
  3  4  1  0
  4  5  1  0
  5  6  1  0
  6  7  1  0
  6  8  1  0
  8  9  1  0
  5 10  1  0
 10 11  2  0
 10 12  1  0
 12 13  2  0
 13 14  1  0
 12 15  1  0
 15 16  2  0
 16 17  1  0
 17 18  2  0
 17 19  1  0
 19 20  2  0
 20 21  1  0
 21 22  2  0
 21 23  1  0
  8  2  1  0
 18 13  1  0
 22 18  1  0
  1 24  1  0
  1 25  1  0
  1 26  1  0
  3 27  1  0
  3 28  1  0
  4 29  1  0
  4 30  1  0
  6 31  1  0
  7 32  1  0
  7 33  1  0
  7 34  1  0
  8 35  1  0
  9 36  1  0
  9 37  1  0
  9 38  1  0
 14 39  1  0
 15 40  1  0
 16 41  1  0
 19 42  1  0
 20 43  1  0
 22 44  1  0
 23 45  1  0
M  END
>  <mol_id>  (7) 
FCG2880127876

>  <drugclip_rank>  (7) 
7

>  <conformer>  (7) 
18

>  <align_rmsd>  (7) 
0.355

$$$$
FCG2947887977
     RDKit          3D

 50 51  0  0  0  0  0  0  0  0999 V2000
    4.4163    4.7431   -1.3464 C   0  0  0  0  0  0  0  0  0  0  0  0
    4.9272    3.4180   -1.3619 O   0  0  0  0  0  0  0  0  0  0  0  0
    4.2436    2.4661   -0.6511 C   0  0  0  0  0  0  0  0  0  0  0  0
    3.0446    2.6804    0.0310 C   0  0  0  0  0  0  0  0  0  0  0  0
    4.8054    1.1855   -0.6293 C   0  0  0  0  0  0  0  0  0  0  0  0
    5.9858    0.9580   -1.2988 O   0  0  0  0  0  0  0  0  0  0  0  0
    5.7029    0.5010   -2.6215 C   0  0  0  0  0  0  0  0  0  0  0  0
    4.1968    0.1517    0.1005 C   0  0  0  0  0  0  0  0  0  0  0  0
    4.7445   -1.1110    0.1590 O   0  0  0  0  0  0  0  0  0  0  0  0
    6.0402   -1.1101    0.7594 C   0  0  0  0  0  0  0  0  0  0  0  0
    2.9578    0.3494    0.7517 C   0  0  0  0  0  0  0  0  0  0  0  0
    2.3907    1.6383    0.7266 C   0  0  0  0  0  0  0  0  0  0  0  0
    2.3345   -0.8446    1.4545 C   0  0  0  0  0  0  0  0  0  0  0  0
    0.8812   -0.7969    1.9590 C   0  0  0  0  0  0  0  0  0  0  0  0
   -0.0351   -0.2715    0.9389 N   0  0  0  0  0  0  0  0  0  0  0  0
   -0.1248    1.2018    0.9853 C   0  0  0  0  0  0  0  0  0  0  0  0
    1.1182    1.9712    1.4643 C   0  0  0  0  0  0  0  0  0  0  0  0
   -1.3731   -0.9075    1.0317 C   0  0  0  0  0  0  0  0  0  0  0  0
   -2.2299   -0.6079   -0.2211 C   0  0  0  0  0  0  0  0  0  0  0  0
   -1.4528   -0.9517   -1.3860 O   0  0  0  0  0  0  0  0  0  0  0  0
   -3.5435   -1.4072   -0.2906 C   0  0  0  0  0  0  0  0  0  0  0  0
   -4.4759   -1.1565    0.8828 C   0  0  0  0  0  0  0  0  0  0  0  0
   -3.2551   -2.8069   -0.3549 O   0  0  0  0  0  0  0  0  0  0  0  0
    5.0966    5.3707   -1.9301 H   0  0  0  0  0  0  0  0  0  0  0  0
    4.3857    5.1443   -0.3280 H   0  0  0  0  0  0  0  0  0  0  0  0
    3.4309    4.7909   -1.8214 H   0  0  0  0  0  0  0  0  0  0  0  0
    2.5863    3.6648    0.0340 H   0  0  0  0  0  0  0  0  0  0  0  0
    6.6581    0.3446   -3.1316 H   0  0  0  0  0  0  0  0  0  0  0  0
    5.1347    1.2456   -3.1899 H   0  0  0  0  0  0  0  0  0  0  0  0
    5.1683   -0.4551   -2.6068 H   0  0  0  0  0  0  0  0  0  0  0  0
    6.1663   -0.3103    1.4985 H   0  0  0  0  0  0  0  0  0  0  0  0
    6.8146   -1.0487   -0.0104 H   0  0  0  0  0  0  0  0  0  0  0  0
    6.1646   -2.0657    1.2782 H   0  0  0  0  0  0  0  0  0  0  0  0
    2.3825   -1.6914    0.7548 H   0  0  0  0  0  0  0  0  0  0  0  0
    2.9744   -1.1006    2.3092 H   0  0  0  0  0  0  0  0  0  0  0  0
    0.7970   -0.2516    2.9068 H   0  0  0  0  0  0  0  0  0  0  0  0
    0.6215   -1.8340    2.2122 H   0  0  0  0  0  0  0  0  0  0  0  0
   -0.9497    1.5071    1.6431 H   0  0  0  0  0  0  0  0  0  0  0  0
   -0.3754    1.5551   -0.0226 H   0  0  0  0  0  0  0  0  0  0  0  0
    0.8963    3.0419    1.3627 H   0  0  0  0  0  0  0  0  0  0  0  0
    1.2884    1.8263    2.5382 H   0  0  0  0  0  0  0  0  0  0  0  0
   -1.2289   -1.9942    1.0790 H   0  0  0  0  0  0  0  0  0  0  0  0
   -1.8885   -0.6011    1.9492 H   0  0  0  0  0  0  0  0  0  0  0  0
   -2.4595    0.4617   -0.2822 H   0  0  0  0  0  0  0  0  0  0  0  0
   -0.5298   -0.7254   -1.1402 H   0  0  0  0  0  0  0  0  0  0  0  0
   -4.0626   -1.1564   -1.2234 H   0  0  0  0  0  0  0  0  0  0  0  0
   -5.4207   -1.6906    0.7331 H   0  0  0  0  0  0  0  0  0  0  0  0
   -4.0559   -1.5373    1.8194 H   0  0  0  0  0  0  0  0  0  0  0  0
   -4.6951   -0.0908    0.9970 H   0  0  0  0  0  0  0  0  0  0  0  0
   -2.5788   -2.8870   -1.0583 H   0  0  0  0  0  0  0  0  0  0  0  0
  1  2  1  0
  2  3  1  0
  3  4  2  0
  3  5  1  0
  5  6  1  0
  6  7  1  0
  5  8  2  0
  8  9  1  0
  9 10  1  0
  8 11  1  0
 11 12  2  0
 11 13  1  0
 13 14  1  0
 14 15  1  0
 15 16  1  0
 16 17  1  0
 15 18  1  0
 18 19  1  0
 19 20  1  0
 19 21  1  0
 21 22  1  0
 21 23  1  0
 12  4  1  0
 17 12  1  0
  1 24  1  0
  1 25  1  0
  1 26  1  0
  4 27  1  0
  7 28  1  0
  7 29  1  0
  7 30  1  0
 10 31  1  0
 10 32  1  0
 10 33  1  0
 13 34  1  0
 13 35  1  0
 14 36  1  0
 14 37  1  0
 16 38  1  0
 16 39  1  0
 17 40  1  0
 17 41  1  0
 18 42  1  0
 18 43  1  0
 19 44  1  0
 20 45  1  0
 21 46  1  0
 22 47  1  0
 22 48  1  0
 22 49  1  0
 23 50  1  0
M  END
>  <mol_id>  (8) 
FCG2947887977

>  <drugclip_rank>  (8) 
8

>  <conformer>  (8) 
11

>  <align_rmsd>  (8) 
0.7

$$$$
OSSM_120554
     RDKit          3D

 43 44  0  0  0  0  0  0  0  0999 V2000
   -1.2420    1.6747   -1.1659 C   0  0  0  0  0  0  0  0  0  0  0  0
   -1.3254    0.5588   -0.1236 C   0  0  0  0  0  0  0  0  0  0  0  0
   -2.7059    0.5629    0.5330 C   0  0  0  0  0  0  0  0  0  0  0  0
   -0.2705    0.7949    0.8583 N   0  0  0  0  0  0  0  0  0  0  0  0
    0.6212   -0.3509    1.1234 C   0  0  0  0  0  0  0  0  0  0  0  0
   -0.1012   -1.5377    1.8083 C   0  0  0  0  0  0  0  0  0  0  0  0
   -0.6592   -1.2781    3.2014 C   0  0  0  0  0  0  0  0  0  0  0  0
    1.8691    0.1094    1.9537 C   0  0  0  0  0  0  0  0  0  0  0  0
    1.4653    0.8958    3.0886 O   0  0  0  0  0  0  0  0  0  0  0  0
    2.8929    0.8646    1.1074 C   0  0  0  0  0  0  0  0  0  0  0  0
    2.7132    2.2484    0.9078 C   0  0  0  0  0  0  0  0  0  0  0  0
    3.6147    2.9844    0.1513 C   0  0  0  0  0  0  0  0  0  0  0  0
    4.6969    2.3351   -0.4219 C   0  0  0  0  0  0  0  0  0  0  0  0
    5.5745    3.0913   -1.1634 O   0  0  0  0  0  0  0  0  0  0  0  0
    4.9176    0.9688   -0.2860 C   0  0  0  0  0  0  0  0  0  0  0  0
    3.9999    0.2086    0.4823 C   0  0  0  0  0  0  0  0  0  0  0  0
    5.9991    0.4438   -0.9046 N   0  0  0  0  0  0  0  0  0  0  0  0
    6.1840   -0.8764   -0.7765 C   0  0  0  0  0  0  0  0  0  0  0  0
    7.2802   -1.3526   -1.4171 O   0  0  0  0  0  0  0  0  0  0  0  0
    5.3702   -1.7302   -0.0757 C   0  0  0  0  0  0  0  0  0  0  0  0
    4.2636   -1.1781    0.5598 C   0  0  0  0  0  0  0  0  0  0  0  0
   -2.0058    1.5388   -1.9394 H   0  0  0  0  0  0  0  0  0  0  0  0
   -0.2648    1.6754   -1.6623 H   0  0  0  0  0  0  0  0  0  0  0  0
   -1.3935    2.6623   -0.7152 H   0  0  0  0  0  0  0  0  0  0  0  0
   -1.1853   -0.3946   -0.6468 H   0  0  0  0  0  0  0  0  0  0  0  0
   -3.4900    0.4269   -0.2199 H   0  0  0  0  0  0  0  0  0  0  0  0
   -2.8045   -0.2493    1.2594 H   0  0  0  0  0  0  0  0  0  0  0  0
   -2.9032    1.5077    1.0521 H   0  0  0  0  0  0  0  0  0  0  0  0
   -0.6244    1.1609    1.7428 H   0  0  0  0  0  0  0  0  0  0  0  0
    0.9932   -0.7249    0.1594 H   0  0  0  0  0  0  0  0  0  0  0  0
    0.5997   -2.3802    1.8734 H   0  0  0  0  0  0  0  0  0  0  0  0
   -0.9184   -1.8888    1.1672 H   0  0  0  0  0  0  0  0  0  0  0  0
   -1.2375   -2.1462    3.5351 H   0  0  0  0  0  0  0  0  0  0  0  0
    0.1415   -1.1262    3.9306 H   0  0  0  0  0  0  0  0  0  0  0  0
   -1.3221   -0.4093    3.2243 H   0  0  0  0  0  0  0  0  0  0  0  0
    2.3511   -0.7665    2.3973 H   0  0  0  0  0  0  0  0  0  0  0  0
    2.2412    1.4113    3.3670 H   0  0  0  0  0  0  0  0  0  0  0  0
    1.8484    2.7559    1.3346 H   0  0  0  0  0  0  0  0  0  0  0  0
    3.4724    4.0503    0.0010 H   0  0  0  0  0  0  0  0  0  0  0  0
    6.2372    2.4431   -1.4791 H   0  0  0  0  0  0  0  0  0  0  0  0
    7.6302   -0.5333   -1.8080 H   0  0  0  0  0  0  0  0  0  0  0  0
    5.5865   -2.7904   -0.0253 H   0  0  0  0  0  0  0  0  0  0  0  0
    3.6131   -1.8536    1.1066 H   0  0  0  0  0  0  0  0  0  0  0  0
  1  2  1  0
  2  3  1  0
  2  4  1  0
  4  5  1  0
  5  6  1  0
  6  7  1  0
  5  8  1  0
  8  9  1  0
  8 10  1  0
 10 11  2  0
 11 12  1  0
 12 13  2  0
 13 14  1  0
 13 15  1  0
 15 16  2  0
 15 17  1  0
 17 18  2  0
 18 19  1  0
 18 20  1  0
 20 21  2  0
 16 10  1  0
 21 16  1  0
  1 22  1  0
  1 23  1  0
  1 24  1  0
  2 25  1  0
  3 26  1  0
  3 27  1  0
  3 28  1  0
  4 29  1  0
  5 30  1  0
  6 31  1  0
  6 32  1  0
  7 33  1  0
  7 34  1  0
  7 35  1  0
  8 36  1  0
  9 37  1  0
 11 38  1  0
 12 39  1  0
 14 40  1  0
 19 41  1  0
 20 42  1  0
 21 43  1  0
M  END
>  <mol_id>  (9) 
OSSM_120554

>  <drugclip_rank>  (9) 
9

>  <conformer>  (9) 
11

>  <align_rmsd>  (9) 
0.339

$$$$
MCULE-4357750750
     RDKit          3D

 36 38  0  0  0  0  0  0  0  0999 V2000
    0.3633    3.0677   -0.0343 C   0  0  0  0  0  0  0  0  0  0  0  0
   -0.1633    4.3403   -0.0083 F   0  0  0  0  0  0  0  0  0  0  0  0
    0.9145    2.8840   -1.2818 F   0  0  0  0  0  0  0  0  0  0  0  0
    1.0159    2.5194    1.1917 C   0  0  0  0  0  0  0  0  0  0  0  0
   -0.3159    1.9639    0.6821 C   0  0  0  0  0  0  0  0  0  0  0  0
   -0.4299    0.6291    0.0205 C   0  0  0  0  0  0  0  0  0  0  0  0
   -1.7159    0.5105   -0.6668 N   0  0  0  0  0  0  0  0  0  0  0  0
   -2.7878    0.0805    0.2232 C   0  0  0  0  0  0  0  0  0  0  0  0
    2.2712    1.6831    1.1459 C   0  0  0  0  0  0  0  0  0  0  0  0
    3.3551    1.9984    0.3134 C   0  0  0  0  0  0  0  0  0  0  0  0
    4.5374    1.2203    0.2867 C   0  0  0  0  0  0  0  0  0  0  0  0
    5.6339    1.5071   -0.5419 C   0  0  0  0  0  0  0  0  0  0  0  0
    5.5777    2.5952   -1.3736 O   0  0  0  0  0  0  0  0  0  0  0  0
    6.7680    0.7068   -0.5280 C   0  0  0  0  0  0  0  0  0  0  0  0
    6.7826   -0.3821    0.3302 C   0  0  0  0  0  0  0  0  0  0  0  0
    7.9819   -1.2804    0.3869 C   0  0  0  0  0  0  0  0  0  0  0  0
    5.7446   -0.6867    1.1439 N   0  0  0  0  0  0  0  0  0  0  0  0
    4.6509    0.0964    1.1215 C   0  0  0  0  0  0  0  0  0  0  0  0
    3.5874   -0.2077    1.9561 C   0  0  0  0  0  0  0  0  0  0  0  0
    2.4212    0.5671    1.9783 C   0  0  0  0  0  0  0  0  0  0  0  0
    0.9502    3.1749    2.0584 H   0  0  0  0  0  0  0  0  0  0  0  0
   -1.1864    2.2168    1.2732 H   0  0  0  0  0  0  0  0  0  0  0  0
    0.3640    0.5043   -0.7256 H   0  0  0  0  0  0  0  0  0  0  0  0
   -0.2987   -0.1785    0.7502 H   0  0  0  0  0  0  0  0  0  0  0  0
   -1.6215   -0.1812   -1.4112 H   0  0  0  0  0  0  0  0  0  0  0  0
   -3.7182   -0.0032   -0.3473 H   0  0  0  0  0  0  0  0  0  0  0  0
   -2.9649    0.8001    1.0278 H   0  0  0  0  0  0  0  0  0  0  0  0
   -2.5757   -0.9004    0.6609 H   0  0  0  0  0  0  0  0  0  0  0  0
    3.2872    2.8691   -0.3388 H   0  0  0  0  0  0  0  0  0  0  0  0
    6.3956    2.6456   -1.8943 H   0  0  0  0  0  0  0  0  0  0  0  0
    7.6217    0.9154   -1.1613 H   0  0  0  0  0  0  0  0  0  0  0  0
    7.8305   -2.0881    1.1103 H   0  0  0  0  0  0  0  0  0  0  0  0
    8.8661   -0.7118    0.6912 H   0  0  0  0  0  0  0  0  0  0  0  0
    8.1634   -1.7312   -0.5938 H   0  0  0  0  0  0  0  0  0  0  0  0
    3.6678   -1.0709    2.6127 H   0  0  0  0  0  0  0  0  0  0  0  0
    1.6206    0.2885    2.6609 H   0  0  0  0  0  0  0  0  0  0  0  0
  1  2  1  0
  1  3  1  0
  1  4  1  0
  4  5  1  0
  5  6  1  0
  6  7  1  0
  7  8  1  0
  4  9  1  0
  9 10  2  0
 10 11  1  0
 11 12  2  0
 12 13  1  0
 12 14  1  0
 14 15  2  0
 15 16  1  0
 15 17  1  0
 17 18  2  0
 18 19  1  0
 19 20  2  0
  5  1  1  0
 20  9  1  0
 18 11  1  0
  4 21  1  0
  5 22  1  0
  6 23  1  0
  6 24  1  0
  7 25  1  0
  8 26  1  0
  8 27  1  0
  8 28  1  0
 10 29  1  0
 13 30  1  0
 14 31  1  0
 16 32  1  0
 16 33  1  0
 16 34  1  0
 19 35  1  0
 20 36  1  0
M  END
>  <mol_id>  (10) 
MCULE-4357750750

>  <drugclip_rank>  (10) 
10

>  <conformer>  (10) 
27

>  <align_rmsd>  (10) 
1.119

$$$$
Z1317932814
     RDKit          3D

 49 51  0  0  0  0  0  0  0  0999 V2000
   -2.6147   -7.7752    1.1741 C   0  0  0  0  0  0  0  0  0  0  0  0
   -2.7156   -6.3938    0.6024 C   0  0  0  0  0  0  0  0  0  0  0  0
   -1.5720   -5.6782    0.3047 C   0  0  0  0  0  0  0  0  0  0  0  0
   -1.7242   -4.4090   -0.2299 C   0  0  0  0  0  0  0  0  0  0  0  0
   -2.9496   -3.9077   -0.4606 N   0  0  0  0  0  0  0  0  0  0  0  0
   -4.0129   -4.6643   -0.1336 C   0  0  0  0  0  0  0  0  0  0  0  0
   -3.9476   -5.8988    0.3916 N   0  0  0  0  0  0  0  0  0  0  0  0
   -5.3692   -4.0972   -0.4117 C   0  0  0  0  0  0  0  0  0  0  0  0
   -0.5765   -3.6479   -0.5464 N   0  0  0  0  0  0  0  0  0  0  0  0
   -0.8302   -2.4727   -1.3975 C   0  0  0  0  0  0  0  0  0  0  0  0
   -0.8691   -1.2015   -0.5554 C   0  0  0  0  0  0  0  0  0  0  0  0
    0.5143   -0.9158    0.0881 C   0  0  0  0  0  0  0  0  0  0  0  0
    1.2393   -2.2563    0.3738 C   0  0  0  0  0  0  0  0  0  0  0  0
    0.2601   -3.3958    0.6426 C   0  0  0  0  0  0  0  0  0  0  0  0
    0.4038   -0.0183    1.2710 N   0  0  0  0  0  0  0  0  0  0  0  0
   -0.4072    1.1766    1.0047 C   0  0  0  0  0  0  0  0  0  0  0  0
    1.6912    0.3617    1.8881 C   0  0  0  0  0  0  0  0  0  0  0  0
    2.7209    1.0231    0.9990 C   0  0  0  0  0  0  0  0  0  0  0  0
    3.8576    0.4097    0.6303 C   0  0  0  0  0  0  0  0  0  0  0  0
    4.8204    1.1323   -0.2183 C   0  0  0  0  0  0  0  0  0  0  0  0
    5.8689    0.6243   -0.6007 O   0  0  0  0  0  0  0  0  0  0  0  0
    4.4702    2.5206   -0.6020 C   0  0  0  0  0  0  0  0  0  0  0  0
    5.3369    3.2394   -1.3962 O   0  0  0  0  0  0  0  0  0  0  0  0
    3.3173    3.0183   -0.1511 C   0  0  0  0  0  0  0  0  0  0  0  0
    2.4277    2.3356    0.6438 O   0  0  0  0  0  0  0  0  0  0  0  0
   -2.0783   -7.7520    2.1278 H   0  0  0  0  0  0  0  0  0  0  0  0
   -3.6092   -8.1965    1.3534 H   0  0  0  0  0  0  0  0  0  0  0  0
   -2.0856   -8.4351    0.4795 H   0  0  0  0  0  0  0  0  0  0  0  0
   -0.5915   -6.1072    0.4614 H   0  0  0  0  0  0  0  0  0  0  0  0
   -6.1416   -4.6410    0.1408 H   0  0  0  0  0  0  0  0  0  0  0  0
   -5.4089   -3.0456   -0.1118 H   0  0  0  0  0  0  0  0  0  0  0  0
   -5.5868   -4.1688   -1.4814 H   0  0  0  0  0  0  0  0  0  0  0  0
   -1.7401   -2.5655   -2.0024 H   0  0  0  0  0  0  0  0  0  0  0  0
   -0.0140   -2.3997   -2.1279 H   0  0  0  0  0  0  0  0  0  0  0  0
   -1.1642   -0.3562   -1.1887 H   0  0  0  0  0  0  0  0  0  0  0  0
   -1.6399   -1.3110    0.2187 H   0  0  0  0  0  0  0  0  0  0  0  0
    1.1093   -0.3938   -0.6746 H   0  0  0  0  0  0  0  0  0  0  0  0
    1.9454   -2.1913    1.2044 H   0  0  0  0  0  0  0  0  0  0  0  0
    1.8523   -2.5119   -0.5019 H   0  0  0  0  0  0  0  0  0  0  0  0
    0.8368   -4.2968    0.8825 H   0  0  0  0  0  0  0  0  0  0  0  0
   -0.3533   -3.1465    1.5192 H   0  0  0  0  0  0  0  0  0  0  0  0
   -0.4049    1.8573    1.8642 H   0  0  0  0  0  0  0  0  0  0  0  0
   -0.0600    1.7297    0.1256 H   0  0  0  0  0  0  0  0  0  0  0  0
   -1.4587    0.9137    0.8506 H   0  0  0  0  0  0  0  0  0  0  0  0
    2.1296   -0.5172    2.3744 H   0  0  0  0  0  0  0  0  0  0  0  0
    1.4968    1.0333    2.7364 H   0  0  0  0  0  0  0  0  0  0  0  0
    4.1130   -0.6020    0.9146 H   0  0  0  0  0  0  0  0  0  0  0  0
    6.0872    2.6315   -1.5681 H   0  0  0  0  0  0  0  0  0  0  0  0
    2.9682    4.0178   -0.3681 H   0  0  0  0  0  0  0  0  0  0  0  0
  1  2  1  0
  2  3  2  0
  3  4  1  0
  4  5  2  0
  5  6  1  0
  6  7  2  0
  6  8  1  0
  4  9  1  0
  9 10  1  0
 10 11  1  0
 11 12  1  0
 12 13  1  0
 13 14  1  0
 12 15  1  0
 15 16  1  0
 15 17  1  0
 17 18  1  0
 18 19  2  0
 19 20  1  0
 20 21  2  0
 20 22  1  0
 22 23  1  0
 22 24  2  0
 24 25  1  0
  7  2  1  0
 14  9  1  0
 25 18  1  0
  1 26  1  0
  1 27  1  0
  1 28  1  0
  3 29  1  0
  8 30  1  0
  8 31  1  0
  8 32  1  0
 10 33  1  0
 10 34  1  0
 11 35  1  0
 11 36  1  0
 12 37  1  0
 13 38  1  0
 13 39  1  0
 14 40  1  0
 14 41  1  0
 16 42  1  0
 16 43  1  0
 16 44  1  0
 17 45  1  0
 17 46  1  0
 19 47  1  0
 23 48  1  0
 24 49  1  0
M  END
>  <mol_id>  (11) 
Z1317932814

>  <drugclip_rank>  (11) 
11

>  <conformer>  (11) 
35

>  <align_rmsd>  (11) 
0.984

$$$$
STK632659
     RDKit          3D

 43 44  0  0  0  0  0  0  0  0999 V2000
   -1.2420    1.6747   -1.1659 C   0  0  0  0  0  0  0  0  0  0  0  0
   -1.3254    0.5588   -0.1236 C   0  0  0  0  0  0  0  0  0  0  0  0
   -2.7059    0.5629    0.5330 C   0  0  0  0  0  0  0  0  0  0  0  0
   -0.2705    0.7949    0.8583 N   0  0  0  0  0  0  0  0  0  0  0  0
    0.6212   -0.3509    1.1234 C   0  0  0  0  0  0  0  0  0  0  0  0
   -0.1012   -1.5377    1.8083 C   0  0  0  0  0  0  0  0  0  0  0  0
   -0.6592   -1.2781    3.2014 C   0  0  0  0  0  0  0  0  0  0  0  0
    1.8691    0.1094    1.9537 C   0  0  0  0  0  0  0  0  0  0  0  0
    1.4653    0.8958    3.0886 O   0  0  0  0  0  0  0  0  0  0  0  0
    2.8929    0.8646    1.1074 C   0  0  0  0  0  0  0  0  0  0  0  0
    2.7132    2.2484    0.9078 C   0  0  0  0  0  0  0  0  0  0  0  0
    3.6147    2.9844    0.1513 C   0  0  0  0  0  0  0  0  0  0  0  0
    4.6969    2.3351   -0.4219 C   0  0  0  0  0  0  0  0  0  0  0  0
    5.5745    3.0913   -1.1634 O   0  0  0  0  0  0  0  0  0  0  0  0
    4.9176    0.9688   -0.2860 C   0  0  0  0  0  0  0  0  0  0  0  0
    3.9999    0.2086    0.4823 C   0  0  0  0  0  0  0  0  0  0  0  0
    5.9991    0.4438   -0.9046 N   0  0  0  0  0  0  0  0  0  0  0  0
    6.1840   -0.8764   -0.7765 C   0  0  0  0  0  0  0  0  0  0  0  0
    7.2802   -1.3526   -1.4171 O   0  0  0  0  0  0  0  0  0  0  0  0
    5.3702   -1.7302   -0.0757 C   0  0  0  0  0  0  0  0  0  0  0  0
    4.2636   -1.1781    0.5598 C   0  0  0  0  0  0  0  0  0  0  0  0
   -2.0058    1.5388   -1.9394 H   0  0  0  0  0  0  0  0  0  0  0  0
   -0.2648    1.6754   -1.6623 H   0  0  0  0  0  0  0  0  0  0  0  0
   -1.3935    2.6623   -0.7152 H   0  0  0  0  0  0  0  0  0  0  0  0
   -1.1853   -0.3946   -0.6468 H   0  0  0  0  0  0  0  0  0  0  0  0
   -3.4900    0.4269   -0.2199 H   0  0  0  0  0  0  0  0  0  0  0  0
   -2.8045   -0.2493    1.2594 H   0  0  0  0  0  0  0  0  0  0  0  0
   -2.9032    1.5077    1.0521 H   0  0  0  0  0  0  0  0  0  0  0  0
   -0.6244    1.1609    1.7428 H   0  0  0  0  0  0  0  0  0  0  0  0
    0.9932   -0.7249    0.1594 H   0  0  0  0  0  0  0  0  0  0  0  0
    0.5997   -2.3802    1.8734 H   0  0  0  0  0  0  0  0  0  0  0  0
   -0.9184   -1.8888    1.1672 H   0  0  0  0  0  0  0  0  0  0  0  0
   -1.2375   -2.1462    3.5351 H   0  0  0  0  0  0  0  0  0  0  0  0
    0.1415   -1.1262    3.9306 H   0  0  0  0  0  0  0  0  0  0  0  0
   -1.3221   -0.4093    3.2243 H   0  0  0  0  0  0  0  0  0  0  0  0
    2.3511   -0.7665    2.3973 H   0  0  0  0  0  0  0  0  0  0  0  0
    2.2412    1.4113    3.3670 H   0  0  0  0  0  0  0  0  0  0  0  0
    1.8484    2.7559    1.3346 H   0  0  0  0  0  0  0  0  0  0  0  0
    3.4724    4.0503    0.0010 H   0  0  0  0  0  0  0  0  0  0  0  0
    6.2372    2.4431   -1.4791 H   0  0  0  0  0  0  0  0  0  0  0  0
    7.6302   -0.5333   -1.8080 H   0  0  0  0  0  0  0  0  0  0  0  0
    5.5865   -2.7904   -0.0253 H   0  0  0  0  0  0  0  0  0  0  0  0
    3.6131   -1.8536    1.1066 H   0  0  0  0  0  0  0  0  0  0  0  0
  1  2  1  0
  2  3  1  0
  2  4  1  0
  4  5  1  0
  5  6  1  0
  6  7  1  0
  5  8  1  0
  8  9  1  0
  8 10  1  0
 10 11  2  0
 11 12  1  0
 12 13  2  0
 13 14  1  0
 13 15  1  0
 15 16  2  0
 15 17  1  0
 17 18  2  0
 18 19  1  0
 18 20  1  0
 20 21  2  0
 16 10  1  0
 21 16  1  0
  1 22  1  0
  1 23  1  0
  1 24  1  0
  2 25  1  0
  3 26  1  0
  3 27  1  0
  3 28  1  0
  4 29  1  0
  5 30  1  0
  6 31  1  0
  6 32  1  0
  7 33  1  0
  7 34  1  0
  7 35  1  0
  8 36  1  0
  9 37  1  0
 11 38  1  0
 12 39  1  0
 14 40  1  0
 19 41  1  0
 20 42  1  0
 21 43  1  0
M  END
>  <mol_id>  (12) 
STK632659

>  <drugclip_rank>  (12) 
12

>  <conformer>  (12) 
11

>  <align_rmsd>  (12) 
0.339

$$$$
MCULE-5351999624
     RDKit          3D

 51 53  0  0  0  0  0  0  0  0999 V2000
    1.9701    1.5628    0.0429 C   0  0  0  0  0  0  0  0  0  0  0  0
    3.0253    0.8174   -0.5207 C   0  0  0  0  0  0  0  0  0  0  0  0
    4.2733    1.3972   -0.7856 C   0  0  0  0  0  0  0  0  0  0  0  0
    4.4861    2.7544   -0.4867 C   0  0  0  0  0  0  0  0  0  0  0  0
    3.4443    3.5065    0.0619 C   0  0  0  0  0  0  0  0  0  0  0  0
    2.1905    2.9248    0.3115 C   0  0  0  0  0  0  0  0  0  0  0  0
    1.0920    3.7594    0.9133 C   0  0  0  0  0  0  0  0  0  0  0  0
   -0.2579    3.1570    0.5686 C   0  0  0  0  0  0  0  0  0  0  0  0
   -0.2977    1.8091    1.0247 O   0  0  0  0  0  0  0  0  0  0  0  0
    0.6067    0.9131    0.3354 C   0  0  0  0  0  0  0  0  0  0  0  0
    0.7714   -0.2886    1.2908 C   0  0  0  0  0  0  0  0  0  0  0  0
   -0.5423   -1.0590    1.4737 C   0  0  0  0  0  0  0  0  0  0  0  0
   -1.1729   -1.4938    0.2150 N   0  0  0  0  0  0  0  0  0  0  0  0
   -1.3552   -0.3395   -0.6800 C   0  0  0  0  0  0  0  0  0  0  0  0
   -0.0645    0.4304   -0.9682 C   0  0  0  0  0  0  0  0  0  0  0  0
   -0.4662   -2.6193   -0.4330 C   0  0  0  0  0  0  0  0  0  0  0  0
   -1.2358   -3.9410   -0.2355 C   0  0  0  0  0  0  0  0  0  0  0  0
   -2.6107   -3.7521   -0.6213 O   0  0  0  0  0  0  0  0  0  0  0  0
   -1.2205   -4.4666    1.2007 C   0  0  0  0  0  0  0  0  0  0  0  0
   -1.8702   -5.7396    1.2422 O   0  0  0  0  0  0  0  0  0  0  0  0
    5.7361    3.2468   -0.7691 O   0  0  0  0  0  0  0  0  0  0  0  0
    5.9991    4.6049   -0.4488 C   0  0  0  0  0  0  0  0  0  0  0  0
    5.3404    0.7267   -1.3312 O   0  0  0  0  0  0  0  0  0  0  0  0
    5.1835   -0.6556   -1.6140 C   0  0  0  0  0  0  0  0  0  0  0  0
    2.8549   -0.2285   -0.7518 H   0  0  0  0  0  0  0  0  0  0  0  0
    3.5792    4.5560    0.3037 H   0  0  0  0  0  0  0  0  0  0  0  0
    1.2334    3.7712    2.0006 H   0  0  0  0  0  0  0  0  0  0  0  0
    1.1375    4.7893    0.5427 H   0  0  0  0  0  0  0  0  0  0  0  0
   -1.0506    3.7071    1.0860 H   0  0  0  0  0  0  0  0  0  0  0  0
   -0.4723    3.2083   -0.5045 H   0  0  0  0  0  0  0  0  0  0  0  0
    1.1006    0.0650    2.2771 H   0  0  0  0  0  0  0  0  0  0  0  0
    1.5435   -0.9809    0.9379 H   0  0  0  0  0  0  0  0  0  0  0  0
   -1.2595   -0.4325    2.0195 H   0  0  0  0  0  0  0  0  0  0  0  0
   -0.3626   -1.9203    2.1269 H   0  0  0  0  0  0  0  0  0  0  0  0
   -1.8088   -0.6667   -1.6240 H   0  0  0  0  0  0  0  0  0  0  0  0
   -2.0944    0.3367   -0.2314 H   0  0  0  0  0  0  0  0  0  0  0  0
    0.6138   -0.2097   -1.5456 H   0  0  0  0  0  0  0  0  0  0  0  0
   -0.3079    1.2799   -1.6172 H   0  0  0  0  0  0  0  0  0  0  0  0
    0.5702   -2.7277   -0.0954 H   0  0  0  0  0  0  0  0  0  0  0  0
   -0.4200   -2.4499   -1.5168 H   0  0  0  0  0  0  0  0  0  0  0  0
   -0.8293   -4.7065   -0.9061 H   0  0  0  0  0  0  0  0  0  0  0  0
   -2.8298   -2.8540   -0.2942 H   0  0  0  0  0  0  0  0  0  0  0  0
   -1.7736   -3.8096    1.8782 H   0  0  0  0  0  0  0  0  0  0  0  0
   -0.1992   -4.5923    1.5710 H   0  0  0  0  0  0  0  0  0  0  0  0
   -2.6766   -5.6321    0.6989 H   0  0  0  0  0  0  0  0  0  0  0  0
    5.8964    4.7852    0.6264 H   0  0  0  0  0  0  0  0  0  0  0  0
    5.3580    5.2782   -1.0271 H   0  0  0  0  0  0  0  0  0  0  0  0
    7.0367    4.8184   -0.7231 H   0  0  0  0  0  0  0  0  0  0  0  0
    6.1301   -1.0235   -2.0214 H   0  0  0  0  0  0  0  0  0  0  0  0
    4.9709   -1.2245   -0.7029 H   0  0  0  0  0  0  0  0  0  0  0  0
    4.4107   -0.8178   -2.3725 H   0  0  0  0  0  0  0  0  0  0  0  0
  1  2  2  0
  2  3  1  0
  3  4  2  0
  4  5  1  0
  5  6  2  0
  6  7  1  0
  7  8  1  0
  8  9  1  0
  9 10  1  0
 10 11  1  0
 11 12  1  0
 12 13  1  0
 13 14  1  0
 14 15  1  0
 13 16  1  0
 16 17  1  0
 17 18  1  0
 17 19  1  0
 19 20  1  0
  4 21  1  0
 21 22  1  0
  3 23  1  0
 23 24  1  0
  6  1  1  0
 15 10  1  0
 10  1  1  0
  2 25  1  0
  5 26  1  0
  7 27  1  0
  7 28  1  0
  8 29  1  0
  8 30  1  0
 11 31  1  0
 11 32  1  0
 12 33  1  0
 12 34  1  0
 14 35  1  0
 14 36  1  0
 15 37  1  0
 15 38  1  0
 16 39  1  0
 16 40  1  0
 17 41  1  0
 18 42  1  0
 19 43  1  0
 19 44  1  0
 20 45  1  0
 22 46  1  0
 22 47  1  0
 22 48  1  0
 24 49  1  0
 24 50  1  0
 24 51  1  0
M  END
>  <mol_id>  (13) 
MCULE-5351999624

>  <drugclip_rank>  (13) 
13

>  <conformer>  (13) 
10

>  <align_rmsd>  (13) 
1.014

$$$$
MCULE-3005884355
     RDKit          3D

 40 41  0  0  0  0  0  0  0  0999 V2000
    2.3731    1.1128   -0.0719 C   0  0  0  0  0  0  0  0  0  0  0  0
    3.6376    0.9659   -0.6682 C   0  0  0  0  0  0  0  0  0  0  0  0
    4.7923    1.4691   -0.0607 C   0  0  0  0  0  0  0  0  0  0  0  0
    4.6843    2.1349    1.1583 C   0  0  0  0  0  0  0  0  0  0  0  0
    3.4312    2.2992    1.7550 C   0  0  0  0  0  0  0  0  0  0  0  0
    2.2817    1.8057    1.1373 C   0  0  0  0  0  0  0  0  0  0  0  0
    1.1096    2.0234    1.8074 O   0  0  0  0  0  0  0  0  0  0  0  0
   -0.0795    1.7916    1.0434 C   0  0  0  0  0  0  0  0  0  0  0  0
   -0.0345    0.4614    0.2694 C   0  0  0  0  0  0  0  0  0  0  0  0
   -1.3892    0.1230   -0.2575 N   0  0  0  0  0  0  0  0  0  0  0  0
   -1.7546    0.8237   -1.4840 C   0  0  0  0  0  0  0  0  0  0  0  0
   -1.6205   -1.3288   -0.3250 C   0  0  0  0  0  0  0  0  0  0  0  0
   -3.0989   -1.7267   -0.4807 C   0  0  0  0  0  0  0  0  0  0  0  0
   -3.2454   -3.1437   -0.4147 O   0  0  0  0  0  0  0  0  0  0  0  0
    1.1332    0.5814   -0.7450 C   0  0  0  0  0  0  0  0  0  0  0  0
    1.4141   -0.6853   -1.3412 O   0  0  0  0  0  0  0  0  0  0  0  0
    5.9479    1.2465   -0.7572 O   0  0  0  0  0  0  0  0  0  0  0  0
    7.1627    1.6950   -0.1596 C   0  0  0  0  0  0  0  0  0  0  0  0
    8.3062    1.3190   -1.0848 C   0  0  0  0  0  0  0  0  0  0  0  0
    3.7286    0.4383   -1.6161 H   0  0  0  0  0  0  0  0  0  0  0  0
    5.5496    2.5398    1.6711 H   0  0  0  0  0  0  0  0  0  0  0  0
    3.3501    2.8207    2.7053 H   0  0  0  0  0  0  0  0  0  0  0  0
   -0.9081    1.7769    1.7612 H   0  0  0  0  0  0  0  0  0  0  0  0
   -0.2432    2.6519    0.3822 H   0  0  0  0  0  0  0  0  0  0  0  0
    0.2448   -0.3091    1.0034 H   0  0  0  0  0  0  0  0  0  0  0  0
   -1.5529    1.8971   -1.4055 H   0  0  0  0  0  0  0  0  0  0  0  0
   -2.8290    0.7404   -1.6765 H   0  0  0  0  0  0  0  0  0  0  0  0
   -1.2223    0.4358   -2.3587 H   0  0  0  0  0  0  0  0  0  0  0  0
   -1.2671   -1.8056    0.5988 H   0  0  0  0  0  0  0  0  0  0  0  0
   -1.0434   -1.7909   -1.1337 H   0  0  0  0  0  0  0  0  0  0  0  0
   -3.7008   -1.2924    0.3239 H   0  0  0  0  0  0  0  0  0  0  0  0
   -3.5119   -1.3952   -1.4379 H   0  0  0  0  0  0  0  0  0  0  0  0
   -2.7404   -3.5291   -1.1505 H   0  0  0  0  0  0  0  0  0  0  0  0
    0.8857    1.2853   -1.5492 H   0  0  0  0  0  0  0  0  0  0  0  0
    0.6715   -0.8803   -1.9334 H   0  0  0  0  0  0  0  0  0  0  0  0
    7.3130    1.2080    0.8109 H   0  0  0  0  0  0  0  0  0  0  0  0
    7.1460    2.7841   -0.0365 H   0  0  0  0  0  0  0  0  0  0  0  0
    9.2653    1.6427   -0.6709 H   0  0  0  0  0  0  0  0  0  0  0  0
    8.1726    1.7789   -2.0696 H   0  0  0  0  0  0  0  0  0  0  0  0
    8.3357    0.2354   -1.2404 H   0  0  0  0  0  0  0  0  0  0  0  0
  1  2  2  0
  2  3  1  0
  3  4  2  0
  4  5  1  0
  5  6  2  0
  6  7  1  0
  7  8  1  0
  8  9  1  0
  9 10  1  0
 10 11  1  0
 10 12  1  0
 12 13  1  0
 13 14  1  0
  9 15  1  0
 15 16  1  0
  3 17  1  0
 17 18  1  0
 18 19  1  0
  6  1  1  0
 15  1  1  0
  2 20  1  0
  4 21  1  0
  5 22  1  0
  8 23  1  0
  8 24  1  0
  9 25  1  0
 11 26  1  0
 11 27  1  0
 11 28  1  0
 12 29  1  0
 12 30  1  0
 13 31  1  0
 13 32  1  0
 14 33  1  0
 15 34  1  0
 16 35  1  0
 18 36  1  0
 18 37  1  0
 19 38  1  0
 19 39  1  0
 19 40  1  0
M  END
>  <mol_id>  (14) 
MCULE-3005884355

>  <drugclip_rank>  (14) 
14

>  <conformer>  (14) 
26

>  <align_rmsd>  (14) 
0.806

$$$$
MCULE-1064508720
     RDKit          3D

 37 38  0  0  0  0  0  0  0  0999 V2000
    2.0882    0.7630   -0.1509 C   0  0  0  0  0  0  0  0  0  0  0  0
    3.2903    0.1688   -0.5844 C   0  0  0  0  0  0  0  0  0  0  0  0
    4.4738    0.9074   -0.6375 C   0  0  0  0  0  0  0  0  0  0  0  0
    4.4568    2.2483   -0.2513 C   0  0  0  0  0  0  0  0  0  0  0  0
    3.2772    2.8414    0.1990 C   0  0  0  0  0  0  0  0  0  0  0  0
    2.1043    2.0937    0.2676 C   0  0  0  0  0  0  0  0  0  0  0  0
    0.9975    2.7451    0.7318 O   0  0  0  0  0  0  0  0  0  0  0  0
   -0.0229    1.8650    1.2188 C   0  0  0  0  0  0  0  0  0  0  0  0
   -0.4545    0.8421    0.1480 C   0  0  0  0  0  0  0  0  0  0  0  0
   -1.7038    0.1279    0.5833 N   0  0  0  0  0  0  0  0  0  0  0  0
   -2.8803    0.9835    0.3654 C   0  0  0  0  0  0  0  0  0  0  0  0
   -1.8867   -1.1823   -0.0760 C   0  0  0  0  0  0  0  0  0  0  0  0
   -3.1286   -1.9802    0.3680 C   0  0  0  0  0  0  0  0  0  0  0  0
   -3.1058   -3.2963   -0.1831 O   0  0  0  0  0  0  0  0  0  0  0  0
    0.8087   -0.0391   -0.1233 C   0  0  0  0  0  0  0  0  0  0  0  0
    0.6660   -0.7078   -1.3867 O   0  0  0  0  0  0  0  0  0  0  0  0
    5.6933    0.4456   -1.0479 O   0  0  0  0  0  0  0  0  0  0  0  0
    5.7730   -0.9266   -1.4133 C   0  0  0  0  0  0  0  0  0  0  0  0
    3.2662   -0.8759   -0.8824 H   0  0  0  0  0  0  0  0  0  0  0  0
    5.3718    2.8341   -0.2940 H   0  0  0  0  0  0  0  0  0  0  0  0
    3.2779    3.8831    0.5081 H   0  0  0  0  0  0  0  0  0  0  0  0
   -0.8514    2.5155    1.5116 H   0  0  0  0  0  0  0  0  0  0  0  0
    0.3245    1.3718    2.1372 H   0  0  0  0  0  0  0  0  0  0  0  0
   -0.6704    1.3723   -0.7918 H   0  0  0  0  0  0  0  0  0  0  0  0
   -3.7685    0.5585    0.8435 H   0  0  0  0  0  0  0  0  0  0  0  0
   -3.0896    1.1228   -0.7014 H   0  0  0  0  0  0  0  0  0  0  0  0
   -2.7608    1.9726    0.8163 H   0  0  0  0  0  0  0  0  0  0  0  0
   -1.0319   -1.8308    0.1455 H   0  0  0  0  0  0  0  0  0  0  0  0
   -1.9198   -1.0668   -1.1673 H   0  0  0  0  0  0  0  0  0  0  0  0
   -4.0565   -1.5034    0.0389 H   0  0  0  0  0  0  0  0  0  0  0  0
   -3.1550   -2.0779    1.4579 H   0  0  0  0  0  0  0  0  0  0  0  0
   -3.0167   -3.2089   -1.1475 H   0  0  0  0  0  0  0  0  0  0  0  0
    0.9101   -0.8001    0.6602 H   0  0  0  0  0  0  0  0  0  0  0  0
    0.9347   -0.0737   -2.0750 H   0  0  0  0  0  0  0  0  0  0  0  0
    6.8094   -1.1381   -1.6936 H   0  0  0  0  0  0  0  0  0  0  0  0
    5.1428   -1.1400   -2.2830 H   0  0  0  0  0  0  0  0  0  0  0  0
    5.5172   -1.5761   -0.5695 H   0  0  0  0  0  0  0  0  0  0  0  0
  1  2  2  0
  2  3  1  0
  3  4  2  0
  4  5  1  0
  5  6  2  0
  6  7  1  0
  7  8  1  0
  8  9  1  0
  9 10  1  0
 10 11  1  0
 10 12  1  0
 12 13  1  0
 13 14  1  0
  9 15  1  0
 15 16  1  0
  3 17  1  0
 17 18  1  0
  6  1  1  0
 15  1  1  0
  2 19  1  0
  4 20  1  0
  5 21  1  0
  8 22  1  0
  8 23  1  0
  9 24  1  0
 11 25  1  0
 11 26  1  0
 11 27  1  0
 12 28  1  0
 12 29  1  0
 13 30  1  0
 13 31  1  0
 14 32  1  0
 15 33  1  0
 16 34  1  0
 18 35  1  0
 18 36  1  0
 18 37  1  0
M  END
>  <mol_id>  (15) 
MCULE-1064508720

>  <drugclip_rank>  (15) 
15

>  <conformer>  (15) 
30

>  <align_rmsd>  (15) 
0.701

$$$$
MCULE-1296496099
     RDKit          3D

 41 42  0  0  0  0  0  0  0  0999 V2000
    2.9909    0.5549    0.4730 C   0  0  0  0  0  0  0  0  0  0  0  0
    3.0202    1.7707    1.1785 C   0  0  0  0  0  0  0  0  0  0  0  0
    3.8778    2.8020    0.7522 C   0  0  0  0  0  0  0  0  0  0  0  0
    4.7172    2.6246   -0.3485 C   0  0  0  0  0  0  0  0  0  0  0  0
    4.6958    1.4092   -1.0318 C   0  0  0  0  0  0  0  0  0  0  0  0
    3.8430    0.3816   -0.6275 C   0  0  0  0  0  0  0  0  0  0  0  0
    5.5940    3.5466   -0.8508 O   0  0  0  0  0  0  0  0  0  0  0  0
    5.6301    4.8151   -0.2097 C   0  0  0  0  0  0  0  0  0  0  0  0
    2.1048    2.0213    2.3535 C   0  0  0  0  0  0  0  0  0  0  0  0
    1.4776    0.7471    2.9204 C   0  0  0  0  0  0  0  0  0  0  0  0
    0.8897   -0.1460    1.8026 C   0  0  0  0  0  0  0  0  0  0  0  0
   -0.2278    0.5175    1.0664 N   0  0  0  0  0  0  0  0  0  0  0  0
   -0.7302   -0.2964   -0.0438 C   0  0  0  0  0  0  0  0  0  0  0  0
   -1.3429    0.9745    1.9175 C   0  0  0  0  0  0  0  0  0  0  0  0
   -2.0647   -0.1050    2.7360 C   0  0  0  0  0  0  0  0  0  0  0  0
   -3.2193    0.4900    3.5303 C   0  0  0  0  0  0  0  0  0  0  0  0
    2.1048   -0.5914    0.9164 C   0  0  0  0  0  0  0  0  0  0  0  0
    2.9027   -1.5296    1.6602 O   0  0  0  0  0  0  0  0  0  0  0  0
    3.8653    3.7382    1.3016 H   0  0  0  0  0  0  0  0  0  0  0  0
    5.3477    1.2624   -1.8894 H   0  0  0  0  0  0  0  0  0  0  0  0
    3.8463   -0.5575   -1.1769 H   0  0  0  0  0  0  0  0  0  0  0  0
    4.6606    5.3197   -0.2765 H   0  0  0  0  0  0  0  0  0  0  0  0
    6.3638    5.4341   -0.7350 H   0  0  0  0  0  0  0  0  0  0  0  0
    5.9578    4.7220    0.8309 H   0  0  0  0  0  0  0  0  0  0  0  0
    1.3172    2.7139    2.0332 H   0  0  0  0  0  0  0  0  0  0  0  0
    2.6674    2.5158    3.1549 H   0  0  0  0  0  0  0  0  0  0  0  0
    0.7273    1.0035    3.6758 H   0  0  0  0  0  0  0  0  0  0  0  0
    2.2469    0.1832    3.4655 H   0  0  0  0  0  0  0  0  0  0  0  0
    0.5010   -1.0547    2.2815 H   0  0  0  0  0  0  0  0  0  0  0  0
   -1.6182    0.1588   -0.4982 H   0  0  0  0  0  0  0  0  0  0  0  0
    0.0049   -0.3549   -0.8520 H   0  0  0  0  0  0  0  0  0  0  0  0
   -0.9908   -1.3129    0.2697 H   0  0  0  0  0  0  0  0  0  0  0  0
   -2.0772    1.4857    1.2798 H   0  0  0  0  0  0  0  0  0  0  0  0
   -0.9895    1.7648    2.5896 H   0  0  0  0  0  0  0  0  0  0  0  0
   -2.4595   -0.8872    2.0787 H   0  0  0  0  0  0  0  0  0  0  0  0
   -1.3744   -0.5837    3.4385 H   0  0  0  0  0  0  0  0  0  0  0  0
   -3.7220   -0.2906    4.1100 H   0  0  0  0  0  0  0  0  0  0  0  0
   -3.9584    0.9480    2.8653 H   0  0  0  0  0  0  0  0  0  0  0  0
   -2.8626    1.2546    4.2278 H   0  0  0  0  0  0  0  0  0  0  0  0
    1.7548   -1.1453    0.0409 H   0  0  0  0  0  0  0  0  0  0  0  0
    3.8110   -1.1824    1.6922 H   0  0  0  0  0  0  0  0  0  0  0  0
  1  2  1  0
  2  3  2  0
  3  4  1  0
  4  5  2  0
  5  6  1  0
  4  7  1  0
  7  8  1  0
  2  9  1  0
  9 10  1  0
 10 11  1  0
 11 12  1  0
 12 13  1  0
 12 14  1  0
 14 15  1  0
 15 16  1  0
 11 17  1  0
 17 18  1  0
  6  1  2  0
 17  1  1  0
  3 19  1  0
  5 20  1  0
  6 21  1  0
  8 22  1  0
  8 23  1  0
  8 24  1  0
  9 25  1  0
  9 26  1  0
 10 27  1  0
 10 28  1  0
 11 29  1  0
 13 30  1  0
 13 31  1  0
 13 32  1  0
 14 33  1  0
 14 34  1  0
 15 35  1  0
 15 36  1  0
 16 37  1  0
 16 38  1  0
 16 39  1  0
 17 40  1  0
 18 41  1  0
M  END
>  <mol_id>  (16) 
MCULE-1296496099

>  <drugclip_rank>  (16) 
16

>  <conformer>  (16) 
33

>  <align_rmsd>  (16) 
0.414

$$$$
FCG2878104926
     RDKit          3D

 44 45  0  0  0  0  0  0  0  0999 V2000
    6.5335    6.2726   -3.2118 C   0  0  0  0  0  0  0  0  0  0  0  0
    6.7703    6.5396   -1.7887 N   0  0  0  0  0  0  0  0  0  0  0  0
    8.1431    7.0198   -1.6121 C   0  0  0  0  0  0  0  0  0  0  0  0
    5.7173    7.3922   -1.1403 C   0  0  0  0  0  0  0  0  0  0  0  0
    5.5683    8.7841   -1.7932 C   0  0  0  0  0  0  0  0  0  0  0  0
    6.0503    7.6058    0.3595 C   0  0  0  0  0  0  0  0  0  0  0  0
    4.3190    6.6882   -1.1941 C   0  0  0  0  0  0  0  0  0  0  0  0
    4.3792    5.3084   -0.7526 N   0  0  0  0  0  0  0  0  0  0  0  0
    3.2518    4.5485   -0.5603 C   0  0  0  0  0  0  0  0  0  0  0  0
    2.1198    5.0227   -0.5978 O   0  0  0  0  0  0  0  0  0  0  0  0
    3.4497    3.0906   -0.2805 C   0  0  0  0  0  0  0  0  0  0  0  0
    4.6388    2.3808   -0.5339 C   0  0  0  0  0  0  0  0  0  0  0  0
    5.6874    3.0501   -1.1220 O   0  0  0  0  0  0  0  0  0  0  0  0
    2.3540    2.4017    0.2522 C   0  0  0  0  0  0  0  0  0  0  0  0
    2.4417    1.0414    0.5464 C   0  0  0  0  0  0  0  0  0  0  0  0
    3.6298    0.3330    0.3241 C   0  0  0  0  0  0  0  0  0  0  0  0
    4.7592    0.9981   -0.2177 C   0  0  0  0  0  0  0  0  0  0  0  0
    3.6992   -1.0343    0.6427 C   0  0  0  0  0  0  0  0  0  0  0  0
    4.8713   -1.7626    0.4418 C   0  0  0  0  0  0  0  0  0  0  0  0
    5.9834   -1.1176   -0.0740 C   0  0  0  0  0  0  0  0  0  0  0  0
    5.9397    0.2364   -0.3962 C   0  0  0  0  0  0  0  0  0  0  0  0
    7.1584   -1.7786   -0.2806 O   0  0  0  0  0  0  0  0  0  0  0  0
    6.6136    7.1748   -3.8280 H   0  0  0  0  0  0  0  0  0  0  0  0
    5.5565    5.8131   -3.3886 H   0  0  0  0  0  0  0  0  0  0  0  0
    7.2670    5.5486   -3.5869 H   0  0  0  0  0  0  0  0  0  0  0  0
    8.3064    8.0029   -2.0646 H   0  0  0  0  0  0  0  0  0  0  0  0
    8.8529    6.3206   -2.0711 H   0  0  0  0  0  0  0  0  0  0  0  0
    8.4268    7.0642   -0.5562 H   0  0  0  0  0  0  0  0  0  0  0  0
    4.8157    9.3811   -1.2635 H   0  0  0  0  0  0  0  0  0  0  0  0
    5.2432    8.7150   -2.8371 H   0  0  0  0  0  0  0  0  0  0  0  0
    6.5045    9.3522   -1.7657 H   0  0  0  0  0  0  0  0  0  0  0  0
    6.9099    8.2703    0.4994 H   0  0  0  0  0  0  0  0  0  0  0  0
    6.2675    6.6560    0.8616 H   0  0  0  0  0  0  0  0  0  0  0  0
    5.2096    8.0707    0.8880 H   0  0  0  0  0  0  0  0  0  0  0  0
    3.9130    6.6852   -2.2132 H   0  0  0  0  0  0  0  0  0  0  0  0
    3.5858    7.2184   -0.5729 H   0  0  0  0  0  0  0  0  0  0  0  0
    5.2651    4.8233   -0.8907 H   0  0  0  0  0  0  0  0  0  0  0  0
    6.2592    2.4133   -1.5802 H   0  0  0  0  0  0  0  0  0  0  0  0
    1.4192    2.9272    0.4446 H   0  0  0  0  0  0  0  0  0  0  0  0
    1.5666    0.5429    0.9606 H   0  0  0  0  0  0  0  0  0  0  0  0
    2.8328   -1.5447    1.0608 H   0  0  0  0  0  0  0  0  0  0  0  0
    4.8942   -2.8172    0.6962 H   0  0  0  0  0  0  0  0  0  0  0  0
    6.8568    0.6854   -0.7649 H   0  0  0  0  0  0  0  0  0  0  0  0
    7.0725   -2.6851    0.0579 H   0  0  0  0  0  0  0  0  0  0  0  0
  1  2  1  0
  2  3  1  0
  2  4  1  0
  4  5  1  0
  4  6  1  0
  4  7  1  0
  7  8  1  0
  8  9  1  0
  9 10  2  0
  9 11  1  0
 11 12  2  0
 12 13  1  0
 11 14  1  0
 14 15  2  0
 15 16  1  0
 16 17  2  0
 16 18  1  0
 18 19  2  0
 19 20  1  0
 20 21  2  0
 20 22  1  0
 17 12  1  0
 21 17  1  0
  1 23  1  0
  1 24  1  0
  1 25  1  0
  3 26  1  0
  3 27  1  0
  3 28  1  0
  5 29  1  0
  5 30  1  0
  5 31  1  0
  6 32  1  0
  6 33  1  0
  6 34  1  0
  7 35  1  0
  7 36  1  0
  8 37  1  0
 13 38  1  0
 14 39  1  0
 15 40  1  0
 18 41  1  0
 19 42  1  0
 21 43  1  0
 22 44  1  0
M  END
>  <mol_id>  (17) 
FCG2878104926

>  <drugclip_rank>  (17) 
17

>  <conformer>  (17) 
9

>  <align_rmsd>  (17) 
0.214

$$$$
Z1993819341
     RDKit          3D

 45 46  0  0  0  0  0  0  0  0999 V2000
   -3.7063   -1.3287    2.3038 C   0  0  0  0  0  0  0  0  0  0  0  0
   -3.5220   -0.7090    0.9244 C   0  0  0  0  0  0  0  0  0  0  0  0
   -2.5506   -1.4708    0.0124 C   0  0  2  0  0  0  0  0  0  0  0  0
   -3.0901   -2.7752   -0.2340 O   0  0  0  0  0  0  0  0  0  0  0  0
   -1.1138   -1.6074    0.5750 C   0  0  0  0  0  0  0  0  0  0  0  0
   -0.4384   -0.3399    0.9107 N   0  0  0  0  0  0  0  0  0  0  0  0
   -0.2226    0.4971   -0.2805 C   0  0  0  0  0  0  0  0  0  0  0  0
    0.6965    1.7077   -0.0591 C   0  0  0  0  0  0  0  0  0  0  0  0
    0.7893   -0.5681    1.6898 C   0  0  0  0  0  0  0  0  0  0  0  0
    2.0428   -0.9301    0.8814 C   0  0  0  0  0  0  0  0  0  0  0  0
    2.7885    0.2309    0.2538 C   0  0  0  0  0  0  0  0  0  0  0  0
    2.1808    1.4230   -0.1753 C   0  0  0  0  0  0  0  0  0  0  0  0
    4.1782    0.0678    0.0645 C   0  0  0  0  0  0  0  0  0  0  0  0
    4.9704    1.0764   -0.4942 C   0  0  0  0  0  0  0  0  0  0  0  0
    6.3249    0.9812   -0.6963 O   0  0  0  0  0  0  0  0  0  0  0  0
    6.9690   -0.2229   -0.3082 C   0  0  0  0  0  0  0  0  0  0  0  0
    4.3704    2.2836   -0.8812 C   0  0  0  0  0  0  0  0  0  0  0  0
    2.9904    2.4446   -0.7174 C   0  0  0  0  0  0  0  0  0  0  0  0
    5.2078    3.2335   -1.4115 O   0  0  0  0  0  0  0  0  0  0  0  0
    4.6454    4.4885   -1.7638 C   0  0  0  0  0  0  0  0  0  0  0  0
   -2.7813   -1.2908    2.8866 H   0  0  0  0  0  0  0  0  0  0  0  0
   -4.4700   -0.7768    2.8616 H   0  0  0  0  0  0  0  0  0  0  0  0
   -4.0304   -2.3715    2.2340 H   0  0  0  0  0  0  0  0  0  0  0  0
   -3.1961    0.3309    1.0384 H   0  0  0  0  0  0  0  0  0  0  0  0
   -4.5059   -0.6840    0.4393 H   0  0  0  0  0  0  0  0  0  0  0  0
   -2.5215   -0.9629   -0.9584 H   0  0  0  0  0  0  0  0  0  0  0  0
   -2.5314   -3.2000   -0.9068 H   0  0  0  0  0  0  0  0  0  0  0  0
   -0.5129   -2.1849   -0.1406 H   0  0  0  0  0  0  0  0  0  0  0  0
   -1.1717   -2.2464    1.4660 H   0  0  0  0  0  0  0  0  0  0  0  0
   -1.1990    0.8945   -0.5830 H   0  0  0  0  0  0  0  0  0  0  0  0
    0.1507   -0.0986   -1.1243 H   0  0  0  0  0  0  0  0  0  0  0  0
    0.4277    2.4448   -0.8282 H   0  0  0  0  0  0  0  0  0  0  0  0
    0.4927    2.1891    0.9055 H   0  0  0  0  0  0  0  0  0  0  0  0
    0.9885    0.3192    2.3048 H   0  0  0  0  0  0  0  0  0  0  0  0
    0.6041   -1.3649    2.4224 H   0  0  0  0  0  0  0  0  0  0  0  0
    1.8104   -1.6650    0.1014 H   0  0  0  0  0  0  0  0  0  0  0  0
    2.7259   -1.4313    1.5809 H   0  0  0  0  0  0  0  0  0  0  0  0
    4.6267   -0.8713    0.3749 H   0  0  0  0  0  0  0  0  0  0  0  0
    6.8776   -0.3906    0.7700 H   0  0  0  0  0  0  0  0  0  0  0  0
    8.0340   -0.1218   -0.5387 H   0  0  0  0  0  0  0  0  0  0  0  0
    6.5864   -1.0769   -0.8767 H   0  0  0  0  0  0  0  0  0  0  0  0
    2.5087    3.3707   -1.0171 H   0  0  0  0  0  0  0  0  0  0  0  0
    4.2082    4.9860   -0.8918 H   0  0  0  0  0  0  0  0  0  0  0  0
    3.9109    4.3796   -2.5685 H   0  0  0  0  0  0  0  0  0  0  0  0
    5.4539    5.1244   -2.1373 H   0  0  0  0  0  0  0  0  0  0  0  0
  1  2  1  0
  2  3  1  0
  3  4  1  0
  3  5  1  0
  5  6  1  0
  6  7  1  0
  7  8  1  0
  6  9  1  0
  9 10  1  0
 10 11  1  0
 11 12  2  0
 11 13  1  0
 13 14  2  0
 14 15  1  0
 15 16  1  0
 14 17  1  0
 17 18  2  0
 17 19  1  0
 19 20  1  0
 12  8  1  0
 18 12  1  0
  1 21  1  0
  1 22  1  0
  1 23  1  0
  2 24  1  0
  2 25  1  0
  3 26  1  6
  4 27  1  0
  5 28  1  0
  5 29  1  0
  7 30  1  0
  7 31  1  0
  8 32  1  0
  8 33  1  0
  9 34  1  0
  9 35  1  0
 10 36  1  0
 10 37  1  0
 13 38  1  0
 16 39  1  0
 16 40  1  0
 16 41  1  0
 18 42  1  0
 20 43  1  0
 20 44  1  0
 20 45  1  0
M  END
>  <mol_id>  (18) 
Z1993819341

>  <drugclip_rank>  (18) 
18

>  <conformer>  (18) 
16

>  <align_rmsd>  (18) 
0.64

$$$$
Z56801208
     RDKit          3D

 40 41  0  0  0  0  0  0  0  0999 V2000
    3.7523    2.9162    4.3274 O   0  0  0  0  0  0  0  0  0  0  0  0
    3.5910    2.5403    3.1715 C   0  0  0  0  0  0  0  0  0  0  0  0
    4.7608    2.2721    2.3177 C   0  0  0  0  0  0  0  0  0  0  0  0
    4.5753    1.8321    1.0670 C   0  0  0  0  0  0  0  0  0  0  0  0
    5.7099    1.5251    0.1379 C   0  0  0  0  0  0  0  0  0  0  0  0
    5.6748    2.4376   -0.9504 O   0  0  0  0  0  0  0  0  0  0  0  0
    3.3186    1.6013    0.5329 O   0  0  0  0  0  0  0  0  0  0  0  0
    2.1866    1.8750    1.2902 C   0  0  0  0  0  0  0  0  0  0  0  0
    2.2484    2.3228    2.5604 C   0  0  0  0  0  0  0  0  0  0  0  0
    1.1274    2.6011    3.3243 O   0  0  0  0  0  0  0  0  0  0  0  0
    0.9039    1.6227    0.5249 C   0  0  0  0  0  0  0  0  0  0  0  0
   -0.2593    1.2608    1.3670 N   0  0  0  0  0  0  0  0  0  0  0  0
   -0.1198   -0.1383    1.8624 C   0  0  0  0  0  0  0  0  0  0  0  0
   -1.4714   -0.8585    2.0494 C   0  0  0  0  0  0  0  0  0  0  0  0
   -2.1727   -1.0444    0.7619 N   0  0  0  0  0  0  0  0  0  0  0  0
   -2.0340    0.1484   -0.1019 C   0  0  0  0  0  0  0  0  0  0  0  0
   -1.5282    1.4194    0.6195 C   0  0  0  0  0  0  0  0  0  0  0  0
   -3.5803   -1.4289    0.9964 C   0  0  0  0  0  0  0  0  0  0  0  0
   -4.2043   -2.0694   -0.2538 C   0  0  0  0  0  0  0  0  0  0  0  0
   -3.3553   -3.1092   -0.7370 O   0  0  0  0  0  0  0  0  0  0  0  0
    5.7343    2.4537    2.7529 H   0  0  0  0  0  0  0  0  0  0  0  0
    6.6814    1.6168    0.6346 H   0  0  0  0  0  0  0  0  0  0  0  0
    5.6144    0.5059   -0.2507 H   0  0  0  0  0  0  0  0  0  0  0  0
    6.3937    2.1852   -1.5534 H   0  0  0  0  0  0  0  0  0  0  0  0
    0.3500    2.3073    2.8023 H   0  0  0  0  0  0  0  0  0  0  0  0
    1.0666    0.8613   -0.2494 H   0  0  0  0  0  0  0  0  0  0  0  0
    0.6937    2.5595   -0.0087 H   0  0  0  0  0  0  0  0  0  0  0  0
    0.4053   -0.1200    2.8241 H   0  0  0  0  0  0  0  0  0  0  0  0
    0.4904   -0.7450    1.1792 H   0  0  0  0  0  0  0  0  0  0  0  0
   -1.2873   -1.8422    2.4975 H   0  0  0  0  0  0  0  0  0  0  0  0
   -2.0869   -0.2888    2.7589 H   0  0  0  0  0  0  0  0  0  0  0  0
   -2.9713    0.3935   -0.6141 H   0  0  0  0  0  0  0  0  0  0  0  0
   -1.3187   -0.1072   -0.8937 H   0  0  0  0  0  0  0  0  0  0  0  0
   -1.4693    2.2492   -0.0955 H   0  0  0  0  0  0  0  0  0  0  0  0
   -2.2939    1.7262    1.3447 H   0  0  0  0  0  0  0  0  0  0  0  0
   -3.6034   -2.1920    1.7854 H   0  0  0  0  0  0  0  0  0  0  0  0
   -4.1827   -0.5799    1.3404 H   0  0  0  0  0  0  0  0  0  0  0  0
   -4.3441   -1.3420   -1.0587 H   0  0  0  0  0  0  0  0  0  0  0  0
   -5.1792   -2.5048   -0.0151 H   0  0  0  0  0  0  0  0  0  0  0  0
   -2.4474   -2.7924   -0.5531 H   0  0  0  0  0  0  0  0  0  0  0  0
  1  2  2  0
  2  3  1  0
  3  4  2  0
  4  5  1  0
  5  6  1  0
  4  7  1  0
  7  8  1  0
  8  9  2  0
  9 10  1  0
  8 11  1  0
 11 12  1  0
 12 13  1  0
 13 14  1  0
 14 15  1  0
 15 16  1  0
 16 17  1  0
 15 18  1  0
 18 19  1  0
 19 20  1  0
  9  2  1  0
 17 12  1  0
  3 21  1  0
  5 22  1  0
  5 23  1  0
  6 24  1  0
 10 25  1  0
 11 26  1  0
 11 27  1  0
 13 28  1  0
 13 29  1  0
 14 30  1  0
 14 31  1  0
 16 32  1  0
 16 33  1  0
 17 34  1  0
 17 35  1  0
 18 36  1  0
 18 37  1  0
 19 38  1  0
 19 39  1  0
 20 40  1  0
M  END
>  <mol_id>  (19) 
Z56801208

>  <drugclip_rank>  (19) 
19

>  <conformer>  (19) 
31

>  <align_rmsd>  (19) 
0.817

$$$$
FCG2946094125
     RDKit          3D

 43 44  0  0  0  0  0  0  0  0999 V2000
    5.6502    4.6272   -0.3229 C   0  0  0  0  0  0  0  0  0  0  0  0
    5.6432    3.2615   -0.7108 O   0  0  0  0  0  0  0  0  0  0  0  0
    4.5318    2.5163   -0.4009 C   0  0  0  0  0  0  0  0  0  0  0  0
    3.4279    3.0002    0.3097 C   0  0  0  0  0  0  0  0  0  0  0  0
    4.5398    1.1799   -0.8447 C   0  0  0  0  0  0  0  0  0  0  0  0
    5.6614    0.7774   -1.5282 O   0  0  0  0  0  0  0  0  0  0  0  0
    5.6552   -0.5244   -2.0949 C   0  0  0  0  0  0  0  0  0  0  0  0
    3.4437    0.3539   -0.5692 C   0  0  0  0  0  0  0  0  0  0  0  0
    2.3312    0.8407    0.1373 C   0  0  0  0  0  0  0  0  0  0  0  0
    2.3354    2.1664    0.5917 C   0  0  0  0  0  0  0  0  0  0  0  0
    1.1776   -0.0952    0.4457 C   0  0  0  0  0  0  0  0  0  0  0  0
   -0.0552    0.5848    0.8869 N   0  0  0  0  0  0  0  0  0  0  0  0
    0.2625    1.5937    1.9108 C   0  0  0  0  0  0  0  0  0  0  0  0
    1.1381    2.7084    1.3270 C   0  0  0  0  0  0  0  0  0  0  0  0
   -1.0761   -0.3563    1.3941 C   0  0  0  0  0  0  0  0  0  0  0  0
   -1.5159   -1.4522    0.3926 C   0  0  0  0  0  0  0  0  0  0  0  0
   -0.5463   -2.5165    0.3113 O   0  0  0  0  0  0  0  0  0  0  0  0
   -2.8823   -2.0782    0.7544 C   0  0  0  0  0  0  0  0  0  0  0  0
   -2.9284   -2.7462    2.1238 C   0  0  0  0  0  0  0  0  0  0  0  0
   -3.1995   -3.0811   -0.2188 O   0  0  0  0  0  0  0  0  0  0  0  0
    5.6142    4.7283    0.7667 H   0  0  0  0  0  0  0  0  0  0  0  0
    4.8334    5.1788   -0.8000 H   0  0  0  0  0  0  0  0  0  0  0  0
    6.5917    5.0674   -0.6655 H   0  0  0  0  0  0  0  0  0  0  0  0
    3.3903    4.0272    0.6576 H   0  0  0  0  0  0  0  0  0  0  0  0
    4.8310   -0.6449   -2.8058 H   0  0  0  0  0  0  0  0  0  0  0  0
    6.5910   -0.6531   -2.6473 H   0  0  0  0  0  0  0  0  0  0  0  0
    5.6224   -1.2926   -1.3154 H   0  0  0  0  0  0  0  0  0  0  0  0
    3.4276   -0.6815   -0.8944 H   0  0  0  0  0  0  0  0  0  0  0  0
    0.9621   -0.6512   -0.4735 H   0  0  0  0  0  0  0  0  0  0  0  0
    1.5222   -0.8010    1.2130 H   0  0  0  0  0  0  0  0  0  0  0  0
   -0.6574    2.0560    2.2899 H   0  0  0  0  0  0  0  0  0  0  0  0
    0.7665    1.1271    2.7684 H   0  0  0  0  0  0  0  0  0  0  0  0
    1.4658    3.3631    2.1432 H   0  0  0  0  0  0  0  0  0  0  0  0
    0.5483    3.3131    0.6266 H   0  0  0  0  0  0  0  0  0  0  0  0
   -1.9642    0.2335    1.6538 H   0  0  0  0  0  0  0  0  0  0  0  0
   -0.7078   -0.8283    2.3142 H   0  0  0  0  0  0  0  0  0  0  0  0
   -1.5929   -1.0312   -0.6172 H   0  0  0  0  0  0  0  0  0  0  0  0
   -0.2985   -2.7670    1.2182 H   0  0  0  0  0  0  0  0  0  0  0  0
   -3.6646   -1.3132    0.7016 H   0  0  0  0  0  0  0  0  0  0  0  0
   -2.2063   -3.5663    2.1948 H   0  0  0  0  0  0  0  0  0  0  0  0
   -3.9156   -3.1917    2.2910 H   0  0  0  0  0  0  0  0  0  0  0  0
   -2.7359   -2.0337    2.9305 H   0  0  0  0  0  0  0  0  0  0  0  0
   -2.3464   -3.4841   -0.4774 H   0  0  0  0  0  0  0  0  0  0  0  0
  1  2  1  0
  2  3  1  0
  3  4  2  0
  3  5  1  0
  5  6  1  0
  6  7  1  0
  5  8  2  0
  8  9  1  0
  9 10  2  0
  9 11  1  0
 11 12  1  0
 12 13  1  0
 13 14  1  0
 12 15  1  0
 15 16  1  0
 16 17  1  0
 16 18  1  0
 18 19  1  0
 18 20  1  0
 10  4  1  0
 14 10  1  0
  1 21  1  0
  1 22  1  0
  1 23  1  0
  4 24  1  0
  7 25  1  0
  7 26  1  0
  7 27  1  0
  8 28  1  0
 11 29  1  0
 11 30  1  0
 13 31  1  0
 13 32  1  0
 14 33  1  0
 14 34  1  0
 15 35  1  0
 15 36  1  0
 16 37  1  0
 17 38  1  0
 18 39  1  0
 19 40  1  0
 19 41  1  0
 19 42  1  0
 20 43  1  0
M  END
>  <mol_id>  (20) 
FCG2946094125

>  <drugclip_rank>  (20) 
20

>  <conformer>  (20) 
21

>  <align_rmsd>  (20) 
0.467

$$$$
MCULE-1995617555
     RDKit          3D

 44 46  0  0  0  0  0  0  0  0999 V2000
    4.0929    6.9367   -3.9739 C   0  0  0  0  0  0  0  0  0  0  0  0
    3.8912    5.8031   -3.0137 C   0  0  0  0  0  0  0  0  0  0  0  0
    4.9353    4.9303   -2.7323 C   0  0  0  0  0  0  0  0  0  0  0  0
    4.7074    3.8881   -1.8345 C   0  0  0  0  0  0  0  0  0  0  0  0
    3.4593    3.7174   -1.2247 C   0  0  0  0  0  0  0  0  0  0  0  0
    2.4891    4.6541   -1.5791 C   0  0  0  0  0  0  0  0  0  0  0  0
    2.6704    5.6786   -2.4501 N   0  0  0  0  0  0  0  0  0  0  0  0
    3.1520    2.6388   -0.2707 C   0  0  0  0  0  0  0  0  0  0  0  0
    3.9139    2.4599    0.8943 C   0  0  0  0  0  0  0  0  0  0  0  0
    3.6063    1.4511    1.8094 C   0  0  0  0  0  0  0  0  0  0  0  0
    2.5293    0.5990    1.5752 C   0  0  0  0  0  0  0  0  0  0  0  0
    1.7547    0.7443    0.4196 C   0  0  0  0  0  0  0  0  0  0  0  0
    2.0700    1.7668   -0.4903 C   0  0  0  0  0  0  0  0  0  0  0  0
    0.5780   -0.1688    0.1655 C   0  0  0  0  0  0  0  0  0  0  0  0
   -0.7236    0.4126    0.7480 C   0  0  0  0  0  0  0  0  0  0  0  0
   -1.9484   -0.3689    0.5408 N   0  0  0  0  0  0  0  0  0  0  0  0
   -2.3165   -0.5794   -0.8695 C   0  0  0  0  0  0  0  0  0  0  0  0
   -2.1573   -2.0377   -1.3305 C   0  0  0  0  0  0  0  0  0  0  0  0
   -2.9135   -2.9702   -0.5462 O   0  0  0  0  0  0  0  0  0  0  0  0
   -3.1139   -2.5406    0.8082 C   0  0  0  0  0  0  0  0  0  0  0  0
   -1.9928   -1.6201    1.3147 C   0  0  0  0  0  0  0  0  0  0  0  0
    5.7220    3.0096   -1.5562 O   0  0  0  0  0  0  0  0  0  0  0  0
    4.3694    6.5518   -4.9604 H   0  0  0  0  0  0  0  0  0  0  0  0
    4.8829    7.6022   -3.6125 H   0  0  0  0  0  0  0  0  0  0  0  0
    3.1754    7.5241   -4.0822 H   0  0  0  0  0  0  0  0  0  0  0  0
    5.8993    5.0678   -3.2078 H   0  0  0  0  0  0  0  0  0  0  0  0
    1.4916    4.6131   -1.1469 H   0  0  0  0  0  0  0  0  0  0  0  0
    4.7597    3.1144    1.0961 H   0  0  0  0  0  0  0  0  0  0  0  0
    4.2102    1.3319    2.7052 H   0  0  0  0  0  0  0  0  0  0  0  0
    2.3014   -0.1806    2.2984 H   0  0  0  0  0  0  0  0  0  0  0  0
    1.4686    1.8776   -1.3917 H   0  0  0  0  0  0  0  0  0  0  0  0
    0.4845   -0.3290   -0.9152 H   0  0  0  0  0  0  0  0  0  0  0  0
    0.7961   -1.1522    0.5975 H   0  0  0  0  0  0  0  0  0  0  0  0
   -0.8890    1.4135    0.3269 H   0  0  0  0  0  0  0  0  0  0  0  0
   -0.5967    0.5814    1.8259 H   0  0  0  0  0  0  0  0  0  0  0  0
   -3.3758   -0.3084   -0.9621 H   0  0  0  0  0  0  0  0  0  0  0  0
   -1.7710    0.0927   -1.5419 H   0  0  0  0  0  0  0  0  0  0  0  0
   -1.1051   -2.3427   -1.2961 H   0  0  0  0  0  0  0  0  0  0  0  0
   -2.4891   -2.1403   -2.3688 H   0  0  0  0  0  0  0  0  0  0  0  0
   -3.1728   -3.4394    1.4305 H   0  0  0  0  0  0  0  0  0  0  0  0
   -4.0877   -2.0402    0.8677 H   0  0  0  0  0  0  0  0  0  0  0  0
   -1.0465   -2.1665    1.2364 H   0  0  0  0  0  0  0  0  0  0  0  0
   -2.1609   -1.3862    2.3715 H   0  0  0  0  0  0  0  0  0  0  0  0
    6.4942    3.2220   -2.1043 H   0  0  0  0  0  0  0  0  0  0  0  0
  1  2  1  0
  2  3  2  0
  3  4  1  0
  4  5  2  0
  5  6  1  0
  6  7  2  0
  5  8  1  0
  8  9  2  0
  9 10  1  0
 10 11  2  0
 11 12  1  0
 12 13  2  0
 12 14  1  0
 14 15  1  0
 15 16  1  0
 16 17  1  0
 17 18  1  0
 18 19  1  0
 19 20  1  0
 20 21  1  0
  4 22  1  0
  7  2  1  0
 13  8  1  0
 21 16  1  0
  1 23  1  0
  1 24  1  0
  1 25  1  0
  3 26  1  0
  6 27  1  0
  9 28  1  0
 10 29  1  0
 11 30  1  0
 13 31  1  0
 14 32  1  0
 14 33  1  0
 15 34  1  0
 15 35  1  0
 17 36  1  0
 17 37  1  0
 18 38  1  0
 18 39  1  0
 20 40  1  0
 20 41  1  0
 21 42  1  0
 21 43  1  0
 22 44  1  0
M  END
>  <mol_id>  (21) 
MCULE-1995617555

>  <drugclip_rank>  (21) 
21

>  <conformer>  (21) 
32

>  <align_rmsd>  (21) 
0.888

$$$$
MCULE-6364997021
     RDKit          3D

 40 41  0  0  0  0  0  0  0  0999 V2000
    0.2198    0.3240    1.1156 N   0  0  0  0  0  0  0  0  0  0  0  0
   -0.2927    1.4371    0.3068 C   0  0  0  0  0  0  0  0  0  0  0  0
    0.7437    2.5692    0.2568 C   0  0  0  0  0  0  0  0  0  0  0  0
    2.1297    2.0752   -0.0822 C   0  0  0  0  0  0  0  0  0  0  0  0
    2.4421    0.7142    0.0580 C   0  0  0  0  0  0  0  0  0  0  0  0
    3.7425    0.2731   -0.2357 C   0  0  0  0  0  0  0  0  0  0  0  0
    4.7334    1.1762   -0.6393 C   0  0  0  0  0  0  0  0  0  0  0  0
    4.4206    2.5442   -0.7616 C   0  0  0  0  0  0  0  0  0  0  0  0
    3.1226    2.9834   -0.4783 C   0  0  0  0  0  0  0  0  0  0  0  0
    5.4479    3.3643   -1.1609 O   0  0  0  0  0  0  0  0  0  0  0  0
    5.1752    4.7530   -1.2751 C   0  0  0  0  0  0  0  0  0  0  0  0
    6.0264    0.8242   -0.9423 O   0  0  0  0  0  0  0  0  0  0  0  0
    6.4046   -0.5300   -0.7473 C   0  0  0  0  0  0  0  0  0  0  0  0
    1.3762   -0.2907    0.4499 C   0  0  0  0  0  0  0  0  0  0  0  0
   -0.8211   -0.6525    1.4846 C   0  0  0  0  0  0  0  0  0  0  0  0
   -1.5866   -1.3868    0.3599 C   0  0  0  0  0  0  0  0  0  0  0  0
   -2.4532   -0.4871   -0.3452 O   0  0  0  0  0  0  0  0  0  0  0  0
   -2.4538   -2.5105    0.9442 C   0  0  0  0  0  0  0  0  0  0  0  0
   -3.1645   -3.1519   -0.1191 O   0  0  0  0  0  0  0  0  0  0  0  0
   -1.2147    1.8419    0.7414 H   0  0  0  0  0  0  0  0  0  0  0  0
   -0.5222    1.1106   -0.7155 H   0  0  0  0  0  0  0  0  0  0  0  0
    0.4216    3.3104   -0.4842 H   0  0  0  0  0  0  0  0  0  0  0  0
    0.7891    3.0673    1.2336 H   0  0  0  0  0  0  0  0  0  0  0  0
    3.9561   -0.7864   -0.1427 H   0  0  0  0  0  0  0  0  0  0  0  0
    2.8536    4.0316   -0.5560 H   0  0  0  0  0  0  0  0  0  0  0  0
    4.4154    4.9451   -2.0398 H   0  0  0  0  0  0  0  0  0  0  0  0
    4.8839    5.1799   -0.3097 H   0  0  0  0  0  0  0  0  0  0  0  0
    6.0972    5.2498   -1.5922 H   0  0  0  0  0  0  0  0  0  0  0  0
    6.2788   -0.8311    0.2980 H   0  0  0  0  0  0  0  0  0  0  0  0
    5.8526   -1.1939   -1.4206 H   0  0  0  0  0  0  0  0  0  0  0  0
    7.4674   -0.6192   -0.9923 H   0  0  0  0  0  0  0  0  0  0  0  0
    1.0776   -0.8204   -0.4626 H   0  0  0  0  0  0  0  0  0  0  0  0
    1.8261   -1.0200    1.1347 H   0  0  0  0  0  0  0  0  0  0  0  0
   -1.5511   -0.1254    2.1134 H   0  0  0  0  0  0  0  0  0  0  0  0
   -0.3537   -1.3987    2.1404 H   0  0  0  0  0  0  0  0  0  0  0  0
   -0.9022   -1.8155   -0.3788 H   0  0  0  0  0  0  0  0  0  0  0  0
   -3.1373   -1.0475   -0.7633 H   0  0  0  0  0  0  0  0  0  0  0  0
   -1.8558   -3.2590    1.4729 H   0  0  0  0  0  0  0  0  0  0  0  0
   -3.2048   -2.1050    1.6297 H   0  0  0  0  0  0  0  0  0  0  0  0
   -2.5216   -3.6809   -0.6240 H   0  0  0  0  0  0  0  0  0  0  0  0
  1  2  1  0
  2  3  1  0
  3  4  1  0
  4  5  2  0
  5  6  1  0
  6  7  2  0
  7  8  1  0
  8  9  2  0
  8 10  1  0
 10 11  1  0
  7 12  1  0
 12 13  1  0
  5 14  1  0
  1 15  1  0
 15 16  1  0
 16 17  1  0
 16 18  1  0
 18 19  1  0
 14  1  1  0
  9  4  1  0
  2 20  1  0
  2 21  1  0
  3 22  1  0
  3 23  1  0
  6 24  1  0
  9 25  1  0
 11 26  1  0
 11 27  1  0
 11 28  1  0
 13 29  1  0
 13 30  1  0
 13 31  1  0
 14 32  1  0
 14 33  1  0
 15 34  1  0
 15 35  1  0
 16 36  1  0
 17 37  1  0
 18 38  1  0
 18 39  1  0
 19 40  1  0
M  END
>  <mol_id>  (22) 
MCULE-6364997021

>  <drugclip_rank>  (22) 
22

>  <conformer>  (22) 
25

>  <align_rmsd>  (22) 
0.48

$$$$
MCULE-6774338267
     RDKit          3D

 44 45  0  0  0  0  0  0  0  0999 V2000
    2.3478    1.3808    0.1882 C   0  0  0  0  0  0  0  0  0  0  0  0
    2.9498    0.1867    0.6318 C   0  0  0  0  0  0  0  0  0  0  0  0
    2.1479   -0.8298    1.4106 C   0  0  0  0  0  0  0  0  0  0  0  0
    0.8146   -0.2709    1.9233 C   0  0  0  0  0  0  0  0  0  0  0  0
    0.0865    0.5400    0.9386 N   0  0  0  0  0  0  0  0  0  0  0  0
    0.9150    1.7066    0.5640 C   0  0  0  0  0  0  0  0  0  0  0  0
   -0.3870   -0.1863   -0.2563 C   0  0  0  0  0  0  0  0  0  0  0  0
   -1.3432   -1.3659    0.0368 C   0  0  0  0  0  0  0  0  0  0  0  0
   -0.6237   -2.5437    0.4517 O   0  0  0  0  0  0  0  0  0  0  0  0
   -2.1431   -1.7500   -1.2156 C   0  0  0  0  0  0  0  0  0  0  0  0
   -2.9894   -2.8631   -0.9268 O   0  0  0  0  0  0  0  0  0  0  0  0
    4.2894   -0.0936    0.3099 C   0  0  0  0  0  0  0  0  0  0  0  0
    5.0461    0.8059   -0.4438 C   0  0  0  0  0  0  0  0  0  0  0  0
    4.4444    1.9953   -0.8852 C   0  0  0  0  0  0  0  0  0  0  0  0
    3.1205    2.3056   -0.5330 C   0  0  0  0  0  0  0  0  0  0  0  0
    2.5016    3.4699   -0.9195 O   0  0  0  0  0  0  0  0  0  0  0  0
    3.1995    4.6376   -0.4844 C   0  0  0  0  0  0  0  0  0  0  0  0
    5.1828    2.8813   -1.6361 O   0  0  0  0  0  0  0  0  0  0  0  0
    5.0216    2.5839   -3.0231 C   0  0  0  0  0  0  0  0  0  0  0  0
    6.3513    0.6113   -0.8166 O   0  0  0  0  0  0  0  0  0  0  0  0
    7.0367   -0.4933   -0.2432 C   0  0  0  0  0  0  0  0  0  0  0  0
    1.9675   -1.6917    0.7582 H   0  0  0  0  0  0  0  0  0  0  0  0
    2.7346   -1.1799    2.2684 H   0  0  0  0  0  0  0  0  0  0  0  0
    1.0148    0.3624    2.7994 H   0  0  0  0  0  0  0  0  0  0  0  0
    0.1891   -1.0806    2.3135 H   0  0  0  0  0  0  0  0  0  0  0  0
    0.9451    2.3945    1.4195 H   0  0  0  0  0  0  0  0  0  0  0  0
    0.4182    2.2529   -0.2472 H   0  0  0  0  0  0  0  0  0  0  0  0
    0.4579   -0.5463   -0.8560 H   0  0  0  0  0  0  0  0  0  0  0  0
   -0.9380    0.5344   -0.8741 H   0  0  0  0  0  0  0  0  0  0  0  0
   -2.0398   -1.1165    0.8453 H   0  0  0  0  0  0  0  0  0  0  0  0
    0.0471   -2.7305   -0.2285 H   0  0  0  0  0  0  0  0  0  0  0  0
   -1.4746   -2.0553   -2.0273 H   0  0  0  0  0  0  0  0  0  0  0  0
   -2.7684   -0.9227   -1.5635 H   0  0  0  0  0  0  0  0  0  0  0  0
   -2.5111   -3.3996   -0.2636 H   0  0  0  0  0  0  0  0  0  0  0  0
    4.7129   -1.0320    0.6544 H   0  0  0  0  0  0  0  0  0  0  0  0
    2.4544    5.4173   -0.2984 H   0  0  0  0  0  0  0  0  0  0  0  0
    3.7554    4.4790    0.4471 H   0  0  0  0  0  0  0  0  0  0  0  0
    3.8638    4.9977   -1.2750 H   0  0  0  0  0  0  0  0  0  0  0  0
    5.6210    3.3024   -3.5901 H   0  0  0  0  0  0  0  0  0  0  0  0
    3.9773    2.6958   -3.3347 H   0  0  0  0  0  0  0  0  0  0  0  0
    5.3840    1.5783   -3.2629 H   0  0  0  0  0  0  0  0  0  0  0  0
    6.6176   -1.4409   -0.5968 H   0  0  0  0  0  0  0  0  0  0  0  0
    8.0790   -0.4479   -0.5733 H   0  0  0  0  0  0  0  0  0  0  0  0
    7.0316   -0.4412    0.8507 H   0  0  0  0  0  0  0  0  0  0  0  0
  1  2  2  0
  2  3  1  0
  3  4  1  0
  4  5  1  0
  5  6  1  0
  5  7  1  0
  7  8  1  0
  8  9  1  0
  8 10  1  0
 10 11  1  0
  2 12  1  0
 12 13  2  0
 13 14  1  0
 14 15  2  0
 15 16  1  0
 16 17  1  0
 14 18  1  0
 18 19  1  0
 13 20  1  0
 20 21  1  0
  6  1  1  0
 15  1  1  0
  3 22  1  0
  3 23  1  0
  4 24  1  0
  4 25  1  0
  6 26  1  0
  6 27  1  0
  7 28  1  0
  7 29  1  0
  8 30  1  0
  9 31  1  0
 10 32  1  0
 10 33  1  0
 11 34  1  0
 12 35  1  0
 17 36  1  0
 17 37  1  0
 17 38  1  0
 19 39  1  0
 19 40  1  0
 19 41  1  0
 21 42  1  0
 21 43  1  0
 21 44  1  0
M  END
>  <mol_id>  (23) 
MCULE-6774338267

>  <drugclip_rank>  (23) 
23

>  <conformer>  (23) 
28

>  <align_rmsd>  (23) 
0.669

$$$$
OSSK_467174
     RDKit          3D

 43 43  0  0  0  0  0  0  0  0999 V2000
   -3.0709    1.4169    1.7258 C   0  0  0  0  0  0  0  0  0  0  0  0
   -2.6659   -0.0384    1.7176 C   0  0  0  0  0  0  0  0  0  0  0  0
   -2.1607   -0.4694    0.4514 N   0  0  0  0  0  0  0  0  0  0  0  0
   -3.2223   -0.4753   -0.5165 C   0  0  0  0  0  0  0  0  0  0  0  0
   -4.2797   -1.5077   -0.3015 C   0  0  0  0  0  0  0  0  0  0  0  0
   -1.5041   -1.7290    0.4714 C   0  0  0  0  0  0  0  0  0  0  0  0
   -0.1977   -1.8065    1.1818 C   0  0  0  0  0  0  0  0  0  0  0  0
    0.8853   -0.9692    0.6982 C   0  0  0  0  0  0  0  0  0  0  0  0
    1.5208   -1.3838   -0.4883 C   0  0  0  0  0  0  0  0  0  0  0  0
    2.5072   -0.6986   -1.0115 O   0  0  0  0  0  0  0  0  0  0  0  0
    1.1483   -2.4369   -1.0780 O   0  0  0  0  0  0  0  0  0  0  0  0
    1.3527    0.1898    1.2784 C   0  0  0  0  0  0  0  0  0  0  0  0
    0.7768    0.7269    2.5335 C   0  0  0  0  0  0  0  0  0  0  0  0
    2.3987    0.8590    0.6659 C   0  0  0  0  0  0  0  0  0  0  0  0
    2.9856    0.3943   -0.5106 C   0  0  0  0  0  0  0  0  0  0  0  0
    2.9350    2.0305    1.1698 C   0  0  0  0  0  0  0  0  0  0  0  0
    3.9787    2.6996    0.5581 C   0  0  0  0  0  0  0  0  0  0  0  0
    4.5433    2.2264   -0.5984 C   0  0  0  0  0  0  0  0  0  0  0  0
    4.0274    1.0557   -1.1271 C   0  0  0  0  0  0  0  0  0  0  0  0
    5.5856    2.9156   -1.1882 O   0  0  0  0  0  0  0  0  0  0  0  0
    0.6155    0.2884    0.5225 Cl  0  0  0  0  0  0  0  0  0  0  0  0
   -2.6505    1.9526    2.6186 H   0  0  0  0  0  0  0  0  0  0  0  0
   -4.1651    1.5663    1.7502 H   0  0  0  0  0  0  0  0  0  0  0  0
   -2.7130    1.8982    0.8008 H   0  0  0  0  0  0  0  0  0  0  0  0
   -3.5918   -0.5993    2.0209 H   0  0  0  0  0  0  0  0  0  0  0  0
   -1.9599   -0.2004    2.5499 H   0  0  0  0  0  0  0  0  0  0  0  0
   -3.7022    0.5427   -0.5083 H   0  0  0  0  0  0  0  0  0  0  0  0
   -2.7993   -0.6341   -1.5259 H   0  0  0  0  0  0  0  0  0  0  0  0
   -5.2960   -1.0574   -0.5083 H   0  0  0  0  0  0  0  0  0  0  0  0
   -4.3450   -1.9438    0.6942 H   0  0  0  0  0  0  0  0  0  0  0  0
   -4.1947   -2.3913   -1.0017 H   0  0  0  0  0  0  0  0  0  0  0  0
   -1.4988   -2.1464   -0.5521 H   0  0  0  0  0  0  0  0  0  0  0  0
   -2.1797   -2.4266    1.0417 H   0  0  0  0  0  0  0  0  0  0  0  0
    0.1420   -2.8704    1.1389 H   0  0  0  0  0  0  0  0  0  0  0  0
   -0.4064   -1.5974    2.2432 H   0  0  0  0  0  0  0  0  0  0  0  0
    0.0910    1.5984    2.3690 H   0  0  0  0  0  0  0  0  0  0  0  0
    1.5934    1.1568    3.1976 H   0  0  0  0  0  0  0  0  0  0  0  0
    0.3283   -0.0449    3.1955 H   0  0  0  0  0  0  0  0  0  0  0  0
    2.5500    2.4779    2.0740 H   0  0  0  0  0  0  0  0  0  0  0  0
    4.3659    3.6300    1.0064 H   0  0  0  0  0  0  0  0  0  0  0  0
    4.4824    0.6993   -2.0357 H   0  0  0  0  0  0  0  0  0  0  0  0
    6.4861    2.5229   -1.4048 H   0  0  0  0  0  0  0  0  0  0  0  0
   -0.7204   -0.0098    0.6147 H   0  0  0  0  0  0  0  0  0  0  0  0
  1  2  1  0
  2  3  1  0
  3  4  1  0
  4  5  1  0
  3  6  1  0
  6  7  1  0
  7  8  1  0
  8  9  1  0
  9 10  1  0
  9 11  2  0
  8 12  2  0
 12 13  1  0
 12 14  1  0
 14 15  2  0
 14 16  1  0
 16 17  2  0
 17 18  1  0
 18 19  2  0
 18 20  1  0
 15 10  1  0
 19 15  1  0
  1 22  1  0
  1 23  1  0
  1 24  1  0
  2 25  1  0
  2 26  1  0
  4 27  1  0
  4 28  1  0
  5 29  1  0
  5 30  1  0
  5 31  1  0
  6 32  1  0
  6 33  1  0
  7 34  1  0
  7 35  1  0
 13 36  1  0
 13 37  1  0
 13 38  1  0
 16 39  1  0
 17 40  1  0
 19 41  1  0
 20 42  1  0
 21 43  1  0
M  END
>  <mol_id>  (24) 
OSSK_467174

>  <drugclip_rank>  (24) 
24

>  <conformer>  (24) 
0

>  <align_rmsd>  (24) 
0.19

$$$$
MCULE-7309126653
     RDKit          3D

 40 41  0  0  0  0  0  0  0  0999 V2000
    3.0437    2.6310   -0.9910 C   0  0  0  0  0  0  0  0  0  0  0  0
    2.7301    4.3695   -1.7192 Br  0  0  0  0  0  0  0  0  0  0  0  0
    4.3322    2.0751   -1.0808 C   0  0  0  0  0  0  0  0  0  0  0  0
    4.6190    0.8334   -0.4928 C   0  0  0  0  0  0  0  0  0  0  0  0
    3.5906    0.1303    0.1364 C   0  0  0  0  0  0  0  0  0  0  0  0
    2.2902    0.6632    0.2171 C   0  0  0  0  0  0  0  0  0  0  0  0
    2.0042    1.9163   -0.3649 C   0  0  0  0  0  0  0  0  0  0  0  0
    0.6063    2.4811   -0.2284 C   0  0  0  0  0  0  0  0  0  0  0  0
   -0.4477    1.4375    0.1663 C   0  0  0  0  0  0  0  0  0  0  0  0
    0.0357    0.6181    1.2755 N   0  0  0  0  0  0  0  0  0  0  0  0
    1.2092   -0.1617    0.8913 C   0  0  0  0  0  0  0  0  0  0  0  0
   -1.0181   -0.1554    1.9518 C   0  0  0  0  0  0  0  0  0  0  0  0
   -2.0649   -0.9855    1.1671 C   0  0  0  0  0  0  0  0  0  0  0  0
   -2.9342   -0.1387    0.4010 O   0  0  0  0  0  0  0  0  0  0  0  0
   -1.4945   -2.0632    0.2469 C   0  0  0  0  0  0  0  0  0  0  0  0
   -2.5857   -2.8353   -0.2678 O   0  0  0  0  0  0  0  0  0  0  0  0
    5.9113    0.3870   -0.5955 O   0  0  0  0  0  0  0  0  0  0  0  0
    6.3053   -0.6649    0.2754 C   0  0  0  0  0  0  0  0  0  0  0  0
    5.3418    2.7975   -1.6781 O   0  0  0  0  0  0  0  0  0  0  0  0
    5.5850    2.3152   -2.9998 C   0  0  0  0  0  0  0  0  0  0  0  0
    3.7735   -0.8446    0.5780 H   0  0  0  0  0  0  0  0  0  0  0  0
    0.2815    2.9274   -1.1748 H   0  0  0  0  0  0  0  0  0  0  0  0
    0.6324    3.2711    0.5332 H   0  0  0  0  0  0  0  0  0  0  0  0
   -0.6896    0.8154   -0.7046 H   0  0  0  0  0  0  0  0  0  0  0  0
   -1.3578    1.9798    0.4497 H   0  0  0  0  0  0  0  0  0  0  0  0
    0.9511   -0.9738    0.2055 H   0  0  0  0  0  0  0  0  0  0  0  0
    1.6395   -0.6105    1.7954 H   0  0  0  0  0  0  0  0  0  0  0  0
   -0.5453   -0.8138    2.6925 H   0  0  0  0  0  0  0  0  0  0  0  0
   -1.5849    0.5762    2.5440 H   0  0  0  0  0  0  0  0  0  0  0  0
   -2.7159   -1.4716    1.9049 H   0  0  0  0  0  0  0  0  0  0  0  0
   -3.5034   -0.7554   -0.1011 H   0  0  0  0  0  0  0  0  0  0  0  0
   -0.9900   -1.6243   -0.6176 H   0  0  0  0  0  0  0  0  0  0  0  0
   -0.8165   -2.7319    0.7846 H   0  0  0  0  0  0  0  0  0  0  0  0
   -2.2029   -3.5023   -0.8652 H   0  0  0  0  0  0  0  0  0  0  0  0
    5.8443   -1.6114   -0.0242 H   0  0  0  0  0  0  0  0  0  0  0  0
    6.0786   -0.4276    1.3204 H   0  0  0  0  0  0  0  0  0  0  0  0
    7.3898   -0.7821    0.1884 H   0  0  0  0  0  0  0  0  0  0  0  0
    6.2362    3.0366   -3.5026 H   0  0  0  0  0  0  0  0  0  0  0  0
    6.1034    1.3517   -2.9819 H   0  0  0  0  0  0  0  0  0  0  0  0
    4.6589    2.2356   -3.5805 H   0  0  0  0  0  0  0  0  0  0  0  0
  1  2  1  0
  1  3  2  0
  3  4  1  0
  4  5  2  0
  5  6  1  0
  6  7  2  0
  7  8  1  0
  8  9  1  0
  9 10  1  0
 10 11  1  0
 10 12  1  0
 12 13  1  0
 13 14  1  0
 13 15  1  0
 15 16  1  0
  4 17  1  0
 17 18  1  0
  3 19  1  0
 19 20  1  0
  7  1  1  0
 11  6  1  0
  5 21  1  0
  8 22  1  0
  8 23  1  0
  9 24  1  0
  9 25  1  0
 11 26  1  0
 11 27  1  0
 12 28  1  0
 12 29  1  0
 13 30  1  0
 14 31  1  0
 15 32  1  0
 15 33  1  0
 16 34  1  0
 18 35  1  0
 18 36  1  0
 18 37  1  0
 20 38  1  0
 20 39  1  0
 20 40  1  0
M  END
>  <mol_id>  (25) 
MCULE-7309126653

>  <drugclip_rank>  (25) 
25

>  <conformer>  (25) 
35

>  <align_rmsd>  (25) 
0.691

$$$$
MCULE-6052560004
     RDKit          3D

 50 52  0  0  0  0  0  0  0  0999 V2000
    2.1152    1.1887    0.2476 C   0  0  0  0  0  0  0  0  0  0  0  0
    3.1874    0.5489   -0.4062 C   0  0  0  0  0  0  0  0  0  0  0  0
    4.3520    1.2441   -0.7583 C   0  0  0  0  0  0  0  0  0  0  0  0
    4.4638    2.6117   -0.4523 C   0  0  0  0  0  0  0  0  0  0  0  0
    3.4118    3.2548    0.2049 C   0  0  0  0  0  0  0  0  0  0  0  0
    2.2519    2.5507    0.5677 C   0  0  0  0  0  0  0  0  0  0  0  0
    1.1308    3.2758    1.2627 C   0  0  0  0  0  0  0  0  0  0  0  0
    0.2849    2.2877    2.0452 C   0  0  0  0  0  0  0  0  0  0  0  0
   -0.1908    1.2779    1.1617 O   0  0  0  0  0  0  0  0  0  0  0  0
    0.8396    0.4158    0.6254 C   0  0  0  0  0  0  0  0  0  0  0  0
    0.2093   -0.2359   -0.6222 C   0  0  0  0  0  0  0  0  0  0  0  0
   -1.0057   -1.0863   -0.2629 C   0  0  0  0  0  0  0  0  0  0  0  0
   -0.7045   -2.0786    0.7696 N   0  0  0  0  0  0  0  0  0  0  0  0
   -0.0777   -1.5327    1.9749 C   0  0  0  0  0  0  0  0  0  0  0  0
    1.1547   -0.6921    1.6504 C   0  0  0  0  0  0  0  0  0  0  0  0
   -1.5169   -3.2164    0.7860 C   0  0  0  0  0  0  0  0  0  0  0  0
   -2.3732   -3.4081   -0.0869 O   0  0  0  0  0  0  0  0  0  0  0  0
   -1.3326   -4.3009    1.8743 C   0  0  1  0  0  0  0  0  0  0  0  0
    0.0425   -4.9554    1.8216 C   0  0  0  0  0  0  0  0  0  0  0  0
   -1.6679   -3.7923    3.2185 N   0  0  0  0  0  0  0  0  0  0  0  0
    5.6327    3.2230   -0.8330 O   0  0  0  0  0  0  0  0  0  0  0  0
    5.7645    4.6135   -0.5775 C   0  0  0  0  0  0  0  0  0  0  0  0
    5.4298    0.6794   -1.3954 O   0  0  0  0  0  0  0  0  0  0  0  0
    5.3250   -0.6776   -1.7999 C   0  0  0  0  0  0  0  0  0  0  0  0
    3.0987   -0.5080   -0.6342 H   0  0  0  0  0  0  0  0  0  0  0  0
    3.4685    4.3100    0.4523 H   0  0  0  0  0  0  0  0  0  0  0  0
    1.5234    4.0393    1.9431 H   0  0  0  0  0  0  0  0  0  0  0  0
    0.5215    3.7692    0.4961 H   0  0  0  0  0  0  0  0  0  0  0  0
    0.8357    1.8416    2.8805 H   0  0  0  0  0  0  0  0  0  0  0  0
   -0.5865    2.7998    2.4659 H   0  0  0  0  0  0  0  0  0  0  0  0
    0.9321   -0.8770   -1.1410 H   0  0  0  0  0  0  0  0  0  0  0  0
   -0.1044    0.5369   -1.3358 H   0  0  0  0  0  0  0  0  0  0  0  0
   -1.3602   -1.5847   -1.1724 H   0  0  0  0  0  0  0  0  0  0  0  0
   -1.8325   -0.4654    0.1030 H   0  0  0  0  0  0  0  0  0  0  0  0
   -0.8343   -0.9357    2.4983 H   0  0  0  0  0  0  0  0  0  0  0  0
    0.2317   -2.3215    2.6584 H   0  0  0  0  0  0  0  0  0  0  0  0
    1.9355   -1.3603    1.2646 H   0  0  0  0  0  0  0  0  0  0  0  0
    1.5426   -0.2665    2.5832 H   0  0  0  0  0  0  0  0  0  0  0  0
   -2.0691   -5.0829    1.6456 H   0  0  0  0  0  0  0  0  0  0  0  0
    0.0943   -5.8049    2.5115 H   0  0  0  0  0  0  0  0  0  0  0  0
    0.8550   -4.2706    2.0774 H   0  0  0  0  0  0  0  0  0  0  0  0
    0.2461   -5.3314    0.8127 H   0  0  0  0  0  0  0  0  0  0  0  0
   -2.6297   -3.4485    3.1936 H   0  0  0  0  0  0  0  0  0  0  0  0
   -1.6695   -4.5742    3.8726 H   0  0  0  0  0  0  0  0  0  0  0  0
    6.7387    4.9330   -0.9601 H   0  0  0  0  0  0  0  0  0  0  0  0
    5.7462    4.8207    0.4975 H   0  0  0  0  0  0  0  0  0  0  0  0
    4.9961    5.1878   -1.1055 H   0  0  0  0  0  0  0  0  0  0  0  0
    6.2483   -0.9426   -2.3242 H   0  0  0  0  0  0  0  0  0  0  0  0
    5.2337   -1.3408   -0.9335 H   0  0  0  0  0  0  0  0  0  0  0  0
    4.4940   -0.8205   -2.4986 H   0  0  0  0  0  0  0  0  0  0  0  0
  1  2  2  0
  2  3  1  0
  3  4  2  0
  4  5  1  0
  5  6  2  0
  6  7  1  0
  7  8  1  0
  8  9  1  0
  9 10  1  0
 10 11  1  0
 11 12  1  0
 12 13  1  0
 13 14  1  0
 14 15  1  0
 13 16  1  0
 16 17  2  0
 16 18  1  0
 18 19  1  0
 18 20  1  0
  4 21  1  0
 21 22  1  0
  3 23  1  0
 23 24  1  0
  6  1  1  0
 15 10  1  0
 10  1  1  0
  2 25  1  0
  5 26  1  0
  7 27  1  0
  7 28  1  0
  8 29  1  0
  8 30  1  0
 11 31  1  0
 11 32  1  0
 12 33  1  0
 12 34  1  0
 14 35  1  0
 14 36  1  0
 15 37  1  0
 15 38  1  0
 18 39  1  6
 19 40  1  0
 19 41  1  0
 19 42  1  0
 20 43  1  0
 20 44  1  0
 22 45  1  0
 22 46  1  0
 22 47  1  0
 24 48  1  0
 24 49  1  0
 24 50  1  0
M  END
>  <mol_id>  (26) 
MCULE-6052560004

>  <drugclip_rank>  (26) 
26

>  <conformer>  (26) 
4

>  <align_rmsd>  (26) 
0.725

$$$$
MCULE-8409240289
     RDKit          3D

 44 45  0  0  0  0  0  0  0  0999 V2000
    2.4161    2.1396    0.6331 C   0  0  0  0  0  0  0  0  0  0  0  0
    2.6524    0.7557    0.5760 C   0  0  0  0  0  0  0  0  0  0  0  0
    1.6754   -0.2534    1.1392 C   0  0  0  0  0  0  0  0  0  0  0  0
    0.4323    0.3100    1.6580 N   0  0  0  0  0  0  0  0  0  0  0  0
    0.5233    1.6576    2.2149 C   0  0  0  0  0  0  0  0  0  0  0  0
    1.1183    2.6568    1.2115 C   0  0  0  0  0  0  0  0  0  0  0  0
    1.3247    3.9128    1.8566 O   0  0  0  0  0  0  0  0  0  0  0  0
   -0.5756   -0.5994    1.9661 C   0  0  0  0  0  0  0  0  0  0  0  0
   -0.4722   -1.7957    1.6931 O   0  0  0  0  0  0  0  0  0  0  0  0
   -1.8225   -0.0443    2.6405 C   0  0  0  0  0  0  0  0  0  0  0  0
   -2.8893   -1.1182    2.8648 C   0  0  0  0  0  0  0  0  0  0  0  0
   -4.1079   -0.6097    3.6376 C   0  0  0  0  0  0  0  0  0  0  0  0
   -4.9049    0.4465    2.8878 C   0  0  0  0  0  0  0  0  0  0  0  0
    3.8431    0.2829   -0.0052 C   0  0  0  0  0  0  0  0  0  0  0  0
    4.7894    1.1660   -0.5370 C   0  0  0  0  0  0  0  0  0  0  0  0
    5.9712    0.7793   -1.1195 O   0  0  0  0  0  0  0  0  0  0  0  0
    6.2420   -0.6117   -1.2065 C   0  0  0  0  0  0  0  0  0  0  0  0
    4.5483    2.5510   -0.4870 C   0  0  0  0  0  0  0  0  0  0  0  0
    3.3632    3.0237    0.0871 C   0  0  0  0  0  0  0  0  0  0  0  0
    5.5194    3.3540   -1.0334 O   0  0  0  0  0  0  0  0  0  0  0  0
    5.3710    4.7583   -0.8825 C   0  0  0  0  0  0  0  0  0  0  0  0
    1.4289   -0.9857    0.3607 H   0  0  0  0  0  0  0  0  0  0  0  0
    2.1574   -0.7850    1.9696 H   0  0  0  0  0  0  0  0  0  0  0  0
    1.1396    1.5993    3.1221 H   0  0  0  0  0  0  0  0  0  0  0  0
   -0.4517    2.0290    2.5411 H   0  0  0  0  0  0  0  0  0  0  0  0
    0.4216    2.8096    0.3777 H   0  0  0  0  0  0  0  0  0  0  0  0
    0.4482    4.2947    2.0315 H   0  0  0  0  0  0  0  0  0  0  0  0
   -1.5331    0.3782    3.6091 H   0  0  0  0  0  0  0  0  0  0  0  0
   -2.2261    0.7492    2.0032 H   0  0  0  0  0  0  0  0  0  0  0  0
   -3.2091   -1.5309    1.8998 H   0  0  0  0  0  0  0  0  0  0  0  0
   -2.4508   -1.9522    3.4274 H   0  0  0  0  0  0  0  0  0  0  0  0
   -3.7936   -0.2086    4.6081 H   0  0  0  0  0  0  0  0  0  0  0  0
   -4.7671   -1.4610    3.8453 H   0  0  0  0  0  0  0  0  0  0  0  0
   -5.8128    0.6977    3.4456 H   0  0  0  0  0  0  0  0  0  0  0  0
   -4.3296    1.3681    2.7606 H   0  0  0  0  0  0  0  0  0  0  0  0
   -5.2042    0.0848    1.8990 H   0  0  0  0  0  0  0  0  0  0  0  0
    4.0067   -0.7904   -0.0307 H   0  0  0  0  0  0  0  0  0  0  0  0
    5.4904   -1.1239   -1.8161 H   0  0  0  0  0  0  0  0  0  0  0  0
    7.2100   -0.7337   -1.7021 H   0  0  0  0  0  0  0  0  0  0  0  0
    6.3200   -1.0619   -0.2114 H   0  0  0  0  0  0  0  0  0  0  0  0
    3.1474    4.0872    0.1262 H   0  0  0  0  0  0  0  0  0  0  0  0
    6.2577    5.2359   -1.3105 H   0  0  0  0  0  0  0  0  0  0  0  0
    4.4991    5.1231   -1.4351 H   0  0  0  0  0  0  0  0  0  0  0  0
    5.3190    5.0420    0.1740 H   0  0  0  0  0  0  0  0  0  0  0  0
  1  2  2  0
  2  3  1  0
  3  4  1  0
  4  5  1  0
  5  6  1  0
  6  7  1  0
  4  8  1  0
  8  9  2  0
  8 10  1  0
 10 11  1  0
 11 12  1  0
 12 13  1  0
  2 14  1  0
 14 15  2  0
 15 16  1  0
 16 17  1  0
 15 18  1  0
 18 19  2  0
 18 20  1  0
 20 21  1  0
  6  1  1  0
 19  1  1  0
  3 22  1  0
  3 23  1  0
  5 24  1  0
  5 25  1  0
  6 26  1  0
  7 27  1  0
 10 28  1  0
 10 29  1  0
 11 30  1  0
 11 31  1  0
 12 32  1  0
 12 33  1  0
 13 34  1  0
 13 35  1  0
 13 36  1  0
 14 37  1  0
 17 38  1  0
 17 39  1  0
 17 40  1  0
 19 41  1  0
 21 42  1  0
 21 43  1  0
 21 44  1  0
M  END
>  <mol_id>  (27) 
MCULE-8409240289

>  <drugclip_rank>  (27) 
27

>  <conformer>  (27) 
33

>  <align_rmsd>  (27) 
0.41

$$$$
Z9135329515
     RDKit          3D

 37 39  0  0  0  0  0  0  0  0999 V2000
   -0.4181    2.1608    2.0169 C   0  0  0  0  0  0  0  0  0  0  0  0
   -0.6474    0.9757    1.1073 C   0  0  0  0  0  0  0  0  0  0  0  0
   -1.9163    0.3333    1.0890 C   0  0  0  0  0  0  0  0  0  0  0  0
   -3.0661    0.7933    1.9366 C   0  0  0  0  0  0  0  0  0  0  0  0
   -2.1479   -0.7515    0.2379 N   0  0  0  0  0  0  0  0  0  0  0  0
   -3.2791   -1.3289    0.1663 O   0  0  0  0  0  0  0  0  0  0  0  0
   -1.1118   -1.2119   -0.5540 C   0  0  0  0  0  0  0  0  0  0  0  0
    0.1495   -0.6287   -0.5237 C   0  0  0  0  0  0  0  0  0  0  0  0
    0.4035    0.4662    0.3100 C   0  0  0  0  0  0  0  0  0  0  0  0
    1.7592    1.0341    0.3240 C   0  0  0  0  0  0  0  0  0  0  0  0
    2.6407    0.7662    1.3757 C   0  0  0  0  0  0  0  0  0  0  0  0
    3.9324    1.3083    1.3846 C   0  0  0  0  0  0  0  0  0  0  0  0
    4.4122    2.1320    0.3454 C   0  0  0  0  0  0  0  0  0  0  0  0
    3.4988    2.3930   -0.6976 C   0  0  0  0  0  0  0  0  0  0  0  0
    2.2055    1.8554   -0.7156 C   0  0  0  0  0  0  0  0  0  0  0  0
    5.9009    2.7704    0.3486 C   0  0  0  0  0  0  0  0  0  0  0  0
    6.2946    3.2104   -0.9848 O   0  0  0  0  0  0  0  0  0  0  0  0
    7.0224    1.9859    1.0956 C   0  0  0  0  0  0  0  0  0  0  0  0
    6.9374    2.8619    2.2446 O   0  0  0  0  0  0  0  0  0  0  0  0
    6.1680    3.8175    1.4704 C   0  0  0  0  0  0  0  0  0  0  0  0
   -1.3279    2.7573    2.1357 H   0  0  0  0  0  0  0  0  0  0  0  0
    0.3299    2.8488    1.6114 H   0  0  0  0  0  0  0  0  0  0  0  0
   -0.0886    1.8155    3.0017 H   0  0  0  0  0  0  0  0  0  0  0  0
   -2.7360    0.9658    2.9663 H   0  0  0  0  0  0  0  0  0  0  0  0
   -3.4772    1.7232    1.5314 H   0  0  0  0  0  0  0  0  0  0  0  0
   -3.8771    0.0619    1.9935 H   0  0  0  0  0  0  0  0  0  0  0  0
   -1.3866   -2.0546   -1.1701 H   0  0  0  0  0  0  0  0  0  0  0  0
    0.9369   -1.0394   -1.1525 H   0  0  0  0  0  0  0  0  0  0  0  0
    2.3276    0.1341    2.2048 H   0  0  0  0  0  0  0  0  0  0  0  0
    4.5746    1.0871    2.2368 H   0  0  0  0  0  0  0  0  0  0  0  0
    3.7986    3.0451   -1.5178 H   0  0  0  0  0  0  0  0  0  0  0  0
    1.5449    2.0960   -1.5464 H   0  0  0  0  0  0  0  0  0  0  0  0
    6.3121    2.3923   -1.5110 H   0  0  0  0  0  0  0  0  0  0  0  0
    6.8048    0.9463    1.3550 H   0  0  0  0  0  0  0  0  0  0  0  0
    8.0152    2.0336    0.6349 H   0  0  0  0  0  0  0  0  0  0  0  0
    5.2894    4.1675    2.0201 H   0  0  0  0  0  0  0  0  0  0  0  0
    6.7795    4.6780    1.1795 H   0  0  0  0  0  0  0  0  0  0  0  0
  1  2  1  0
  2  3  2  0
  3  4  1  0
  3  5  1  0
  5  6  1  0
  5  7  2  0
  7  8  1  0
  8  9  2  0
  9 10  1  0
 10 11  2  0
 11 12  1  0
 12 13  2  0
 13 14  1  0
 14 15  2  0
 13 16  1  0
 16 17  1  0
 16 18  1  0
 18 19  1  0
 19 20  1  0
  9  2  1  0
 15 10  1  0
 20 16  1  0
  1 21  1  0
  1 22  1  0
  1 23  1  0
  4 24  1  0
  4 25  1  0
  4 26  1  0
  7 27  1  0
  8 28  1  0
 11 29  1  0
 12 30  1  0
 14 31  1  0
 15 32  1  0
 17 33  1  0
 18 34  1  0
 18 35  1  0
 20 36  1  0
 20 37  1  0
M  CHG  2   5   1   6  -1
M  END
>  <mol_id>  (28) 
Z9135329515

>  <drugclip_rank>  (28) 
28

>  <conformer>  (28) 
2

>  <align_rmsd>  (28) 
0.533

$$$$
MCULE-4411896303
     RDKit          3D

 44 45  0  0  0  0  0  0  0  0999 V2000
    4.4027    0.1318    0.0957 C   0  0  0  0  0  0  0  0  0  0  0  0
    5.0101    1.2952   -0.4013 C   0  0  0  0  0  0  0  0  0  0  0  0
    4.2457    2.4391   -0.6809 C   0  0  0  0  0  0  0  0  0  0  0  0
    2.8760    2.4202   -0.4055 C   0  0  0  0  0  0  0  0  0  0  0  0
    2.2607    1.2724    0.1278 C   0  0  0  0  0  0  0  0  0  0  0  0
    3.0339    0.1298    0.4024 C   0  0  0  0  0  0  0  0  0  0  0  0
    2.3646   -1.1083    0.9473 C   0  0  0  0  0  0  0  0  0  0  0  0
    0.9682   -0.8343    1.5215 C   0  0  0  0  0  0  0  0  0  0  0  0
    0.1690   -0.0276    0.5840 N   0  0  0  0  0  0  0  0  0  0  0  0
    0.7829    1.3099    0.4606 C   0  0  0  0  0  0  0  0  0  0  0  0
   -1.2290    0.1104    1.0331 C   0  0  0  0  0  0  0  0  0  0  0  0
   -2.0823   -1.1601    0.8669 C   0  0  0  0  0  0  0  0  0  0  0  0
   -3.4140   -0.8882    1.3342 O   0  0  0  0  0  0  0  0  0  0  0  0
   -2.1662   -1.6268   -0.5904 C   0  0  0  0  0  0  0  0  0  0  0  0
   -3.0263   -2.7715   -0.6563 O   0  0  0  0  0  0  0  0  0  0  0  0
    4.9272    3.5146   -1.1906 O   0  0  0  0  0  0  0  0  0  0  0  0
    4.1584    4.6202   -1.6434 C   0  0  0  0  0  0  0  0  0  0  0  0
    6.3620    1.3114   -0.6585 O   0  0  0  0  0  0  0  0  0  0  0  0
    7.0643    1.7448    0.5066 C   0  0  0  0  0  0  0  0  0  0  0  0
    5.1073   -1.0166    0.3656 O   0  0  0  0  0  0  0  0  0  0  0  0
    5.7476   -1.5429   -0.7972 C   0  0  0  0  0  0  0  0  0  0  0  0
    2.2575    3.2934   -0.5884 H   0  0  0  0  0  0  0  0  0  0  0  0
    2.2844   -1.8383    0.1318 H   0  0  0  0  0  0  0  0  0  0  0  0
    2.9799   -1.5520    1.7388 H   0  0  0  0  0  0  0  0  0  0  0  0
    0.4961   -1.8050    1.7069 H   0  0  0  0  0  0  0  0  0  0  0  0
    1.0534   -0.3285    2.4928 H   0  0  0  0  0  0  0  0  0  0  0  0
    0.6618    1.8823    1.3906 H   0  0  0  0  0  0  0  0  0  0  0  0
    0.2663    1.8525   -0.3413 H   0  0  0  0  0  0  0  0  0  0  0  0
   -1.7226    0.9036    0.4535 H   0  0  0  0  0  0  0  0  0  0  0  0
   -1.2755    0.4489    2.0775 H   0  0  0  0  0  0  0  0  0  0  0  0
   -1.7073   -1.9746    1.4952 H   0  0  0  0  0  0  0  0  0  0  0  0
   -3.9773   -1.5728    0.9205 H   0  0  0  0  0  0  0  0  0  0  0  0
   -1.1895   -1.8957   -1.0035 H   0  0  0  0  0  0  0  0  0  0  0  0
   -2.6192   -0.8534   -1.2192 H   0  0  0  0  0  0  0  0  0  0  0  0
   -2.5088   -3.5332   -0.3395 H   0  0  0  0  0  0  0  0  0  0  0  0
    3.4328    4.3175   -2.4053 H   0  0  0  0  0  0  0  0  0  0  0  0
    3.6662    5.1233   -0.8050 H   0  0  0  0  0  0  0  0  0  0  0  0
    4.8443    5.3374   -2.1042 H   0  0  0  0  0  0  0  0  0  0  0  0
    8.1316    1.7582    0.2669 H   0  0  0  0  0  0  0  0  0  0  0  0
    6.9151    1.0519    1.3418 H   0  0  0  0  0  0  0  0  0  0  0  0
    6.7711    2.7594    0.7978 H   0  0  0  0  0  0  0  0  0  0  0  0
    5.8169   -2.6284   -0.6728 H   0  0  0  0  0  0  0  0  0  0  0  0
    6.7674   -1.1552   -0.8798 H   0  0  0  0  0  0  0  0  0  0  0  0
    5.1830   -1.3475   -1.7165 H   0  0  0  0  0  0  0  0  0  0  0  0
  1  2  2  0
  2  3  1  0
  3  4  2  0
  4  5  1  0
  5  6  2  0
  6  7  1  0
  7  8  1  0
  8  9  1  0
  9 10  1  0
  9 11  1  0
 11 12  1  0
 12 13  1  0
 12 14  1  0
 14 15  1  0
  3 16  1  0
 16 17  1  0
  2 18  1  0
 18 19  1  0
  1 20  1  0
 20 21  1  0
  6  1  1  0
 10  5  1  0
  4 22  1  0
  7 23  1  0
  7 24  1  0
  8 25  1  0
  8 26  1  0
 10 27  1  0
 10 28  1  0
 11 29  1  0
 11 30  1  0
 12 31  1  0
 13 32  1  0
 14 33  1  0
 14 34  1  0
 15 35  1  0
 17 36  1  0
 17 37  1  0
 17 38  1  0
 19 39  1  0
 19 40  1  0
 19 41  1  0
 21 42  1  0
 21 43  1  0
 21 44  1  0
M  END
>  <mol_id>  (29) 
MCULE-4411896303

>  <drugclip_rank>  (29) 
29

>  <conformer>  (29) 
8

>  <align_rmsd>  (29) 
0.629

$$$$
OSSM_044765
     RDKit          3D

 48 51  0  0  0  0  0  0  0  0999 V2000
   -1.5379   -0.6479    1.9625 C   0  0  0  0  0  0  0  0  0  0  0  0
   -2.6309   -0.7086    0.9763 N   0  0  0  0  0  0  0  0  0  0  0  0
   -2.0983   -0.7494   -0.3969 C   0  0  0  0  0  0  0  0  0  0  0  0
   -3.4327   -1.9153    1.2186 C   0  0  0  0  0  0  0  0  0  0  0  0
   -2.6255   -3.1328    1.0792 N   0  0  0  0  0  0  0  0  0  0  0  0
   -1.5278   -3.1072    2.0660 C   0  0  0  0  0  0  0  0  0  0  0  0
   -2.0880   -3.2084   -0.2938 C   0  0  0  0  0  0  0  0  0  0  0  0
   -1.1950   -1.9794   -0.6107 C   0  0  0  0  0  0  0  0  0  0  0  0
   -0.6982   -2.0542   -2.0569 C   0  0  0  0  0  0  0  0  0  0  0  0
   -0.0361   -2.0149    0.4164 C   0  0  0  0  0  0  0  0  0  0  0  0
   -0.6114   -1.8739    1.8476 C   0  0  0  0  0  0  0  0  0  0  0  0
    0.4825   -1.8405    2.9182 C   0  0  0  0  0  0  0  0  0  0  0  0
    1.1406   -1.1865    0.1022 N   0  0  0  0  0  0  0  0  0  0  0  0
    1.1253    0.0905    0.0497 C   0  0  0  0  0  0  0  0  0  0  0  0
    2.3472    0.8600   -0.2709 C   0  0  0  0  0  0  0  0  0  0  0  0
    3.5580    0.2002   -0.5291 C   0  0  0  0  0  0  0  0  0  0  0  0
    2.2688    2.2565   -0.3097 C   0  0  0  0  0  0  0  0  0  0  0  0
    3.4082    3.0009   -0.6088 C   0  0  0  0  0  0  0  0  0  0  0  0
    4.6044    2.3401   -0.8641 C   0  0  0  0  0  0  0  0  0  0  0  0
    5.7072    3.0962   -1.1554 O   0  0  0  0  0  0  0  0  0  0  0  0
    4.6988    0.9429   -0.8281 C   0  0  0  0  0  0  0  0  0  0  0  0
    5.9452    0.4397   -1.1007 O   0  0  0  0  0  0  0  0  0  0  0  0
    6.0828   -0.9767   -1.0492 C   0  0  0  0  0  0  0  0  0  0  0  0
   -1.9723   -0.5946    2.9709 H   0  0  0  0  0  0  0  0  0  0  0  0
   -0.9889    0.2916    1.8557 H   0  0  0  0  0  0  0  0  0  0  0  0
   -1.5787    0.1852   -0.6248 H   0  0  0  0  0  0  0  0  0  0  0  0
   -2.9403   -0.7701   -1.1035 H   0  0  0  0  0  0  0  0  0  0  0  0
   -4.2863   -1.9468    0.5286 H   0  0  0  0  0  0  0  0  0  0  0  0
   -3.8850   -1.8742    2.2184 H   0  0  0  0  0  0  0  0  0  0  0  0
   -0.9517   -4.0396    1.9963 H   0  0  0  0  0  0  0  0  0  0  0  0
   -1.9519   -3.1014    3.0794 H   0  0  0  0  0  0  0  0  0  0  0  0
   -1.5241   -4.1429   -0.4148 H   0  0  0  0  0  0  0  0  0  0  0  0
   -2.9219   -3.2765   -1.0057 H   0  0  0  0  0  0  0  0  0  0  0  0
   -1.5367   -2.1345   -2.7578 H   0  0  0  0  0  0  0  0  0  0  0  0
   -0.0544   -2.9276   -2.2081 H   0  0  0  0  0  0  0  0  0  0  0  0
   -0.1272   -1.1617   -2.3330 H   0  0  0  0  0  0  0  0  0  0  0  0
    0.3907   -3.0286    0.3585 H   0  0  0  0  0  0  0  0  0  0  0  0
    1.1405   -2.7125    2.8371 H   0  0  0  0  0  0  0  0  0  0  0  0
    1.1013   -0.9413    2.8336 H   0  0  0  0  0  0  0  0  0  0  0  0
    0.0488   -1.8441    3.9245 H   0  0  0  0  0  0  0  0  0  0  0  0
    0.2287    0.6948    0.2343 H   0  0  0  0  0  0  0  0  0  0  0  0
    3.5775   -0.8840   -0.4899 H   0  0  0  0  0  0  0  0  0  0  0  0
    1.3335    2.7724   -0.1101 H   0  0  0  0  0  0  0  0  0  0  0  0
    3.3687    4.0857   -0.6434 H   0  0  0  0  0  0  0  0  0  0  0  0
    6.4246    2.4495   -1.3042 H   0  0  0  0  0  0  0  0  0  0  0  0
    7.1258   -1.2187   -1.2753 H   0  0  0  0  0  0  0  0  0  0  0  0
    5.4570   -1.4613   -1.8061 H   0  0  0  0  0  0  0  0  0  0  0  0
    5.8621   -1.3586   -0.0468 H   0  0  0  0  0  0  0  0  0  0  0  0
  1  2  1  0
  2  3  1  0
  2  4  1  0
  4  5  1  0
  5  6  1  0
  5  7  1  0
  7  8  1  0
  8  9  1  0
  8 10  1  0
 10 11  1  0
 11 12  1  0
 10 13  1  0
 13 14  2  0
 14 15  1  0
 15 16  2  0
 15 17  1  0
 17 18  2  0
 18 19  1  0
 19 20  1  0
 19 21  2  0
 21 22  1  0
 22 23  1  0
 11  1  1  0
  8  3  1  0
 11  6  1  0
 21 16  1  0
  1 24  1  0
  1 25  1  0
  3 26  1  0
  3 27  1  0
  4 28  1  0
  4 29  1  0
  6 30  1  0
  6 31  1  0
  7 32  1  0
  7 33  1  0
  9 34  1  0
  9 35  1  0
  9 36  1  0
 10 37  1  0
 12 38  1  0
 12 39  1  0
 12 40  1  0
 14 41  1  0
 16 42  1  0
 17 43  1  0
 18 44  1  0
 20 45  1  0
 23 46  1  0
 23 47  1  0
 23 48  1  0
M  END
>  <mol_id>  (30) 
OSSM_044765

>  <drugclip_rank>  (30) 
30

>  <conformer>  (30) 
7

>  <align_rmsd>  (30) 
0.47

$$$$
OSSL_639641
     RDKit          3D

 41 42  0  0  0  0  0  0  0  0999 V2000
   -4.3218   -0.0300   -0.7472 C   0  0  0  0  0  0  0  0  0  0  0  0
   -2.8022   -0.1413   -0.8343 C   0  0  0  0  0  0  0  0  0  0  0  0
   -2.1036   -0.5302    0.4028 N   0  0  0  0  0  0  0  0  0  0  0  0
   -2.4901   -1.8552    0.9140 C   0  0  0  0  0  0  0  0  0  0  0  0
   -2.1473   -2.9927   -0.0423 C   0  0  0  0  0  0  0  0  0  0  0  0
   -2.2354    0.5077    1.4465 C   0  0  0  0  0  0  0  0  0  0  0  0
   -1.0139    0.5698    2.3870 C   0  0  0  0  0  0  0  0  0  0  0  0
    0.2458    1.0712    1.7000 C   0  0  0  0  0  0  0  0  0  0  0  0
    0.2604    2.5531    1.5215 C   0  0  0  0  0  0  0  0  0  0  0  0
    1.3612    3.1152    0.9036 O   0  0  0  0  0  0  0  0  0  0  0  0
   -0.6659    3.2592    1.9105 O   0  0  0  0  0  0  0  0  0  0  0  0
    1.2797    0.3018    1.2910 C   0  0  0  0  0  0  0  0  0  0  0  0
    1.3216   -1.1988    1.4264 C   0  0  0  0  0  0  0  0  0  0  0  0
    2.4424    0.9473    0.6459 C   0  0  0  0  0  0  0  0  0  0  0  0
    2.4390    2.3295    0.4742 C   0  0  0  0  0  0  0  0  0  0  0  0
    3.5696    0.2471    0.1849 C   0  0  0  0  0  0  0  0  0  0  0  0
    4.6421    0.9153   -0.4218 C   0  0  0  0  0  0  0  0  0  0  0  0
    4.5949    2.2956   -0.5723 C   0  0  0  0  0  0  0  0  0  0  0  0
    3.4968    3.0137   -0.1272 C   0  0  0  0  0  0  0  0  0  0  0  0
    5.6152    2.9840   -1.1561 O   0  0  0  0  0  0  0  0  0  0  0  0
   -4.7877   -0.9968   -0.5350 H   0  0  0  0  0  0  0  0  0  0  0  0
   -4.6335    0.6832    0.0219 H   0  0  0  0  0  0  0  0  0  0  0  0
   -4.7212    0.3219   -1.7043 H   0  0  0  0  0  0  0  0  0  0  0  0
   -2.4007    0.8224   -1.1744 H   0  0  0  0  0  0  0  0  0  0  0  0
   -2.5424   -0.8391   -1.6385 H   0  0  0  0  0  0  0  0  0  0  0  0
   -1.9509   -2.0588    1.8459 H   0  0  0  0  0  0  0  0  0  0  0  0
   -3.5561   -1.8951    1.1665 H   0  0  0  0  0  0  0  0  0  0  0  0
   -2.3189   -3.9562    0.4492 H   0  0  0  0  0  0  0  0  0  0  0  0
   -1.0948   -2.9535   -0.3422 H   0  0  0  0  0  0  0  0  0  0  0  0
   -2.7685   -2.9707   -0.9426 H   0  0  0  0  0  0  0  0  0  0  0  0
   -3.1441    0.3430    2.0403 H   0  0  0  0  0  0  0  0  0  0  0  0
   -2.3572    1.4956    0.9846 H   0  0  0  0  0  0  0  0  0  0  0  0
   -1.2556    1.2428    3.2211 H   0  0  0  0  0  0  0  0  0  0  0  0
   -0.8552   -0.3934    2.8793 H   0  0  0  0  0  0  0  0  0  0  0  0
    2.1692   -1.5045    2.0498 H   0  0  0  0  0  0  0  0  0  0  0  0
    1.4163   -1.6713    0.4422 H   0  0  0  0  0  0  0  0  0  0  0  0
    0.4313   -1.6293    1.8850 H   0  0  0  0  0  0  0  0  0  0  0  0
    3.6416   -0.8327    0.2844 H   0  0  0  0  0  0  0  0  0  0  0  0
    5.4966    0.3408   -0.7665 H   0  0  0  0  0  0  0  0  0  0  0  0
    3.4605    4.0922   -0.2448 H   0  0  0  0  0  0  0  0  0  0  0  0
    6.3078    2.3566   -1.4207 H   0  0  0  0  0  0  0  0  0  0  0  0
  1  2  1  0
  2  3  1  0
  3  4  1  0
  4  5  1  0
  3  6  1  0
  6  7  1  0
  7  8  1  0
  8  9  1  0
  9 10  1  0
  9 11  2  0
  8 12  2  0
 12 13  1  0
 12 14  1  0
 14 15  2  0
 14 16  1  0
 16 17  2  0
 17 18  1  0
 18 19  2  0
 18 20  1  0
 15 10  1  0
 19 15  1  0
  1 21  1  0
  1 22  1  0
  1 23  1  0
  2 24  1  0
  2 25  1  0
  4 26  1  0
  4 27  1  0
  5 28  1  0
  5 29  1  0
  5 30  1  0
  6 31  1  0
  6 32  1  0
  7 33  1  0
  7 34  1  0
 13 35  1  0
 13 36  1  0
 13 37  1  0
 16 38  1  0
 17 39  1  0
 19 40  1  0
 20 41  1  0
M  END
>  <mol_id>  (31) 
OSSL_639641

>  <drugclip_rank>  (31) 
31

>  <conformer>  (31) 
13

>  <align_rmsd>  (31) 
0.153

$$$$
MCULE-4460325065
     RDKit          3D

 45 48  0  0  0  0  0  0  0  0999 V2000
   -5.1556   -0.5728   -0.5971 C   0  0  0  0  0  0  0  0  0  0  0  0
   -4.2251   -1.5384   -0.6681 C   0  0  0  0  0  0  0  0  0  0  0  0
   -2.8391   -1.2975   -1.2197 C   0  0  0  0  0  0  0  0  0  0  0  0
   -1.7683   -1.5216   -0.2373 N   0  0  0  0  0  0  0  0  0  0  0  0
   -0.4332   -1.4970   -0.8694 C   0  0  0  0  0  0  0  0  0  0  0  0
    0.3320   -0.1628   -0.7166 C   0  0  0  0  0  0  0  0  0  0  0  0
    0.4997    0.2974    0.6782 N   0  0  0  0  0  0  0  0  0  0  0  0
   -0.4850   -0.3413    1.5760 C   0  0  0  0  0  0  0  0  0  0  0  0
   -1.8464   -0.5602    0.8847 C   0  0  0  0  0  0  0  0  0  0  0  0
    1.8616    0.0876    1.1907 C   0  0  0  0  0  0  0  0  0  0  0  0
    2.8895    0.9966    0.5456 C   0  0  0  0  0  0  0  0  0  0  0  0
    4.0634    0.4571   -0.0062 C   0  0  0  0  0  0  0  0  0  0  0  0
    4.9776    1.3254   -0.5657 C   0  0  0  0  0  0  0  0  0  0  0  0
    4.7702    2.6843   -0.5883 C   0  0  0  0  0  0  0  0  0  0  0  0
    3.6370    3.2534   -0.0517 C   0  0  0  0  0  0  0  0  0  0  0  0
    2.6914    2.3983    0.5227 C   0  0  0  0  0  0  0  0  0  0  0  0
    5.7917    3.3556   -1.1841 O   0  0  0  0  0  0  0  0  0  0  0  0
    6.6669    2.2631   -1.5320 C   0  0  0  0  0  0  0  0  0  0  0  0
    6.1566    0.9705   -1.1439 O   0  0  0  0  0  0  0  0  0  0  0  0
   -4.4666   -2.8484   -0.2659 O   0  0  0  0  0  0  0  0  0  0  0  0
   -5.7018   -3.1617    0.2495 C   0  0  0  0  0  0  0  0  0  0  0  0
   -6.7095   -2.2979    0.3849 C   0  0  0  0  0  0  0  0  0  0  0  0
   -7.9357   -2.6509    0.9057 O   0  0  0  0  0  0  0  0  0  0  0  0
   -6.4839   -0.8989   -0.0510 C   0  0  0  0  0  0  0  0  0  0  0  0
   -7.3767   -0.0634    0.0467 O   0  0  0  0  0  0  0  0  0  0  0  0
   -4.9870    0.4478   -0.9125 H   0  0  0  0  0  0  0  0  0  0  0  0
   -2.7151   -1.9985   -2.0562 H   0  0  0  0  0  0  0  0  0  0  0  0
   -2.7599   -0.2903   -1.6504 H   0  0  0  0  0  0  0  0  0  0  0  0
   -0.4864   -1.7672   -1.9314 H   0  0  0  0  0  0  0  0  0  0  0  0
    0.1647   -2.2898   -0.4004 H   0  0  0  0  0  0  0  0  0  0  0  0
    1.2899   -0.2429   -1.2437 H   0  0  0  0  0  0  0  0  0  0  0  0
   -0.2294    0.6163   -1.2486 H   0  0  0  0  0  0  0  0  0  0  0  0
   -0.1186   -1.3103    1.9424 H   0  0  0  0  0  0  0  0  0  0  0  0
   -0.6294    0.3010    2.4527 H   0  0  0  0  0  0  0  0  0  0  0  0
   -2.2160    0.4172    0.5450 H   0  0  0  0  0  0  0  0  0  0  0  0
   -2.5610   -0.9374    1.6255 H   0  0  0  0  0  0  0  0  0  0  0  0
    1.8936    0.3063    2.2668 H   0  0  0  0  0  0  0  0  0  0  0  0
    2.1541   -0.9647    1.0773 H   0  0  0  0  0  0  0  0  0  0  0  0
    4.2574   -0.6099   -0.0010 H   0  0  0  0  0  0  0  0  0  0  0  0
    3.4840    4.3261   -0.0742 H   0  0  0  0  0  0  0  0  0  0  0  0
    1.7837    2.8189    0.9530 H   0  0  0  0  0  0  0  0  0  0  0  0
    7.6346    2.4193   -1.0412 H   0  0  0  0  0  0  0  0  0  0  0  0
    6.8190    2.2680   -2.6175 H   0  0  0  0  0  0  0  0  0  0  0  0
   -5.7575   -4.2026    0.5343 H   0  0  0  0  0  0  0  0  0  0  0  0
   -8.4659   -1.8263    0.8826 H   0  0  0  0  0  0  0  0  0  0  0  0
  1  2  2  0
  2  3  1  0
  3  4  1  0
  4  5  1  0
  5  6  1  0
  6  7  1  0
  7  8  1  0
  8  9  1  0
  7 10  1  0
 10 11  1  0
 11 12  2  0
 12 13  1  0
 13 14  2  0
 14 15  1  0
 15 16  2  0
 14 17  1  0
 17 18  1  0
 18 19  1  0
  2 20  1  0
 20 21  1  0
 21 22  2  0
 22 23  1  0
 22 24  1  0
 24 25  2  0
 24  1  1  0
  9  4  1  0
 16 11  1  0
 19 13  1  0
  1 26  1  0
  3 27  1  0
  3 28  1  0
  5 29  1  0
  5 30  1  0
  6 31  1  0
  6 32  1  0
  8 33  1  0
  8 34  1  0
  9 35  1  0
  9 36  1  0
 10 37  1  0
 10 38  1  0
 12 39  1  0
 15 40  1  0
 16 41  1  0
 18 42  1  0
 18 43  1  0
 21 44  1  0
 23 45  1  0
M  END
>  <mol_id>  (32) 
MCULE-4460325065

>  <drugclip_rank>  (32) 
32

>  <conformer>  (32) 
12

>  <align_rmsd>  (32) 
1.029

$$$$
8012-9271
     RDKit          3D

 41 42  0  0  0  0  0  0  0  0999 V2000
   -4.3218   -0.0300   -0.7472 C   0  0  0  0  0  0  0  0  0  0  0  0
   -2.8022   -0.1413   -0.8343 C   0  0  0  0  0  0  0  0  0  0  0  0
   -2.1036   -0.5302    0.4028 N   0  0  0  0  0  0  0  0  0  0  0  0
   -2.4901   -1.8552    0.9140 C   0  0  0  0  0  0  0  0  0  0  0  0
   -2.1473   -2.9927   -0.0423 C   0  0  0  0  0  0  0  0  0  0  0  0
   -2.2354    0.5077    1.4465 C   0  0  0  0  0  0  0  0  0  0  0  0
   -1.0139    0.5698    2.3870 C   0  0  0  0  0  0  0  0  0  0  0  0
    0.2458    1.0712    1.7000 C   0  0  0  0  0  0  0  0  0  0  0  0
    0.2604    2.5531    1.5215 C   0  0  0  0  0  0  0  0  0  0  0  0
    1.3612    3.1152    0.9036 O   0  0  0  0  0  0  0  0  0  0  0  0
   -0.6659    3.2592    1.9105 O   0  0  0  0  0  0  0  0  0  0  0  0
    1.2797    0.3018    1.2910 C   0  0  0  0  0  0  0  0  0  0  0  0
    1.3216   -1.1988    1.4264 C   0  0  0  0  0  0  0  0  0  0  0  0
    2.4424    0.9473    0.6459 C   0  0  0  0  0  0  0  0  0  0  0  0
    2.4390    2.3295    0.4742 C   0  0  0  0  0  0  0  0  0  0  0  0
    3.5696    0.2471    0.1849 C   0  0  0  0  0  0  0  0  0  0  0  0
    4.6421    0.9153   -0.4218 C   0  0  0  0  0  0  0  0  0  0  0  0
    4.5949    2.2956   -0.5723 C   0  0  0  0  0  0  0  0  0  0  0  0
    3.4968    3.0137   -0.1272 C   0  0  0  0  0  0  0  0  0  0  0  0
    5.6152    2.9840   -1.1561 O   0  0  0  0  0  0  0  0  0  0  0  0
   -4.7877   -0.9968   -0.5350 H   0  0  0  0  0  0  0  0  0  0  0  0
   -4.6335    0.6832    0.0219 H   0  0  0  0  0  0  0  0  0  0  0  0
   -4.7212    0.3219   -1.7043 H   0  0  0  0  0  0  0  0  0  0  0  0
   -2.4007    0.8224   -1.1744 H   0  0  0  0  0  0  0  0  0  0  0  0
   -2.5424   -0.8391   -1.6385 H   0  0  0  0  0  0  0  0  0  0  0  0
   -1.9509   -2.0588    1.8459 H   0  0  0  0  0  0  0  0  0  0  0  0
   -3.5561   -1.8951    1.1665 H   0  0  0  0  0  0  0  0  0  0  0  0
   -2.3189   -3.9562    0.4492 H   0  0  0  0  0  0  0  0  0  0  0  0
   -1.0948   -2.9535   -0.3422 H   0  0  0  0  0  0  0  0  0  0  0  0
   -2.7685   -2.9707   -0.9426 H   0  0  0  0  0  0  0  0  0  0  0  0
   -3.1441    0.3430    2.0403 H   0  0  0  0  0  0  0  0  0  0  0  0
   -2.3572    1.4956    0.9846 H   0  0  0  0  0  0  0  0  0  0  0  0
   -1.2556    1.2428    3.2211 H   0  0  0  0  0  0  0  0  0  0  0  0
   -0.8552   -0.3934    2.8793 H   0  0  0  0  0  0  0  0  0  0  0  0
    2.1692   -1.5045    2.0498 H   0  0  0  0  0  0  0  0  0  0  0  0
    1.4163   -1.6713    0.4422 H   0  0  0  0  0  0  0  0  0  0  0  0
    0.4313   -1.6293    1.8850 H   0  0  0  0  0  0  0  0  0  0  0  0
    3.6416   -0.8327    0.2844 H   0  0  0  0  0  0  0  0  0  0  0  0
    5.4966    0.3408   -0.7665 H   0  0  0  0  0  0  0  0  0  0  0  0
    3.4605    4.0922   -0.2448 H   0  0  0  0  0  0  0  0  0  0  0  0
    6.3078    2.3566   -1.4207 H   0  0  0  0  0  0  0  0  0  0  0  0
  1  2  1  0
  2  3  1  0
  3  4  1  0
  4  5  1  0
  3  6  1  0
  6  7  1  0
  7  8  1  0
  8  9  1  0
  9 10  1  0
  9 11  2  0
  8 12  2  0
 12 13  1  0
 12 14  1  0
 14 15  2  0
 14 16  1  0
 16 17  2  0
 17 18  1  0
 18 19  2  0
 18 20  1  0
 15 10  1  0
 19 15  1  0
  1 21  1  0
  1 22  1  0
  1 23  1  0
  2 24  1  0
  2 25  1  0
  4 26  1  0
  4 27  1  0
  5 28  1  0
  5 29  1  0
  5 30  1  0
  6 31  1  0
  6 32  1  0
  7 33  1  0
  7 34  1  0
 13 35  1  0
 13 36  1  0
 13 37  1  0
 16 38  1  0
 17 39  1  0
 19 40  1  0
 20 41  1  0
M  END
>  <mol_id>  (33) 
8012-9271

>  <drugclip_rank>  (33) 
33

>  <conformer>  (33) 
13

>  <align_rmsd>  (33) 
0.153

$$$$
STK657641
     RDKit          3D

 48 51  0  0  0  0  0  0  0  0999 V2000
   -1.5379   -0.6479    1.9625 C   0  0  0  0  0  0  0  0  0  0  0  0
   -2.6309   -0.7086    0.9763 N   0  0  0  0  0  0  0  0  0  0  0  0
   -2.0983   -0.7494   -0.3969 C   0  0  0  0  0  0  0  0  0  0  0  0
   -3.4327   -1.9153    1.2186 C   0  0  0  0  0  0  0  0  0  0  0  0
   -2.6255   -3.1328    1.0792 N   0  0  0  0  0  0  0  0  0  0  0  0
   -1.5278   -3.1072    2.0660 C   0  0  0  0  0  0  0  0  0  0  0  0
   -2.0880   -3.2084   -0.2938 C   0  0  0  0  0  0  0  0  0  0  0  0
   -1.1950   -1.9794   -0.6107 C   0  0  0  0  0  0  0  0  0  0  0  0
   -0.6982   -2.0542   -2.0569 C   0  0  0  0  0  0  0  0  0  0  0  0
   -0.0361   -2.0149    0.4164 C   0  0  0  0  0  0  0  0  0  0  0  0
   -0.6114   -1.8739    1.8476 C   0  0  0  0  0  0  0  0  0  0  0  0
    0.4825   -1.8405    2.9182 C   0  0  0  0  0  0  0  0  0  0  0  0
    1.1406   -1.1865    0.1022 N   0  0  0  0  0  0  0  0  0  0  0  0
    1.1253    0.0905    0.0497 C   0  0  0  0  0  0  0  0  0  0  0  0
    2.3472    0.8600   -0.2709 C   0  0  0  0  0  0  0  0  0  0  0  0
    3.5580    0.2002   -0.5291 C   0  0  0  0  0  0  0  0  0  0  0  0
    2.2688    2.2565   -0.3097 C   0  0  0  0  0  0  0  0  0  0  0  0
    3.4082    3.0009   -0.6088 C   0  0  0  0  0  0  0  0  0  0  0  0
    4.6044    2.3401   -0.8641 C   0  0  0  0  0  0  0  0  0  0  0  0
    5.7072    3.0962   -1.1554 O   0  0  0  0  0  0  0  0  0  0  0  0
    4.6988    0.9429   -0.8281 C   0  0  0  0  0  0  0  0  0  0  0  0
    5.9452    0.4397   -1.1007 O   0  0  0  0  0  0  0  0  0  0  0  0
    6.0828   -0.9767   -1.0492 C   0  0  0  0  0  0  0  0  0  0  0  0
   -1.9723   -0.5946    2.9709 H   0  0  0  0  0  0  0  0  0  0  0  0
   -0.9889    0.2916    1.8557 H   0  0  0  0  0  0  0  0  0  0  0  0
   -1.5787    0.1852   -0.6248 H   0  0  0  0  0  0  0  0  0  0  0  0
   -2.9403   -0.7701   -1.1035 H   0  0  0  0  0  0  0  0  0  0  0  0
   -4.2863   -1.9468    0.5286 H   0  0  0  0  0  0  0  0  0  0  0  0
   -3.8850   -1.8742    2.2184 H   0  0  0  0  0  0  0  0  0  0  0  0
   -0.9517   -4.0396    1.9963 H   0  0  0  0  0  0  0  0  0  0  0  0
   -1.9519   -3.1014    3.0794 H   0  0  0  0  0  0  0  0  0  0  0  0
   -1.5241   -4.1429   -0.4148 H   0  0  0  0  0  0  0  0  0  0  0  0
   -2.9219   -3.2765   -1.0057 H   0  0  0  0  0  0  0  0  0  0  0  0
   -1.5367   -2.1345   -2.7578 H   0  0  0  0  0  0  0  0  0  0  0  0
   -0.0544   -2.9276   -2.2081 H   0  0  0  0  0  0  0  0  0  0  0  0
   -0.1272   -1.1617   -2.3330 H   0  0  0  0  0  0  0  0  0  0  0  0
    0.3907   -3.0286    0.3585 H   0  0  0  0  0  0  0  0  0  0  0  0
    1.1405   -2.7125    2.8371 H   0  0  0  0  0  0  0  0  0  0  0  0
    1.1013   -0.9413    2.8336 H   0  0  0  0  0  0  0  0  0  0  0  0
    0.0488   -1.8441    3.9245 H   0  0  0  0  0  0  0  0  0  0  0  0
    0.2287    0.6948    0.2343 H   0  0  0  0  0  0  0  0  0  0  0  0
    3.5775   -0.8840   -0.4899 H   0  0  0  0  0  0  0  0  0  0  0  0
    1.3335    2.7724   -0.1101 H   0  0  0  0  0  0  0  0  0  0  0  0
    3.3687    4.0857   -0.6434 H   0  0  0  0  0  0  0  0  0  0  0  0
    6.4246    2.4495   -1.3042 H   0  0  0  0  0  0  0  0  0  0  0  0
    7.1258   -1.2187   -1.2753 H   0  0  0  0  0  0  0  0  0  0  0  0
    5.4570   -1.4613   -1.8061 H   0  0  0  0  0  0  0  0  0  0  0  0
    5.8621   -1.3586   -0.0468 H   0  0  0  0  0  0  0  0  0  0  0  0
  1  2  1  0
  2  3  1  0
  2  4  1  0
  4  5  1  0
  5  6  1  0
  5  7  1  0
  7  8  1  0
  8  9  1  0
  8 10  1  0
 10 11  1  0
 11 12  1  0
 10 13  1  0
 13 14  2  0
 14 15  1  0
 15 16  2  0
 15 17  1  0
 17 18  2  0
 18 19  1  0
 19 20  1  0
 19 21  2  0
 21 22  1  0
 22 23  1  0
 11  1  1  0
  8  3  1  0
 11  6  1  0
 21 16  1  0
  1 24  1  0
  1 25  1  0
  3 26  1  0
  3 27  1  0
  4 28  1  0
  4 29  1  0
  6 30  1  0
  6 31  1  0
  7 32  1  0
  7 33  1  0
  9 34  1  0
  9 35  1  0
  9 36  1  0
 10 37  1  0
 12 38  1  0
 12 39  1  0
 12 40  1  0
 14 41  1  0
 16 42  1  0
 17 43  1  0
 18 44  1  0
 20 45  1  0
 23 46  1  0
 23 47  1  0
 23 48  1  0
M  END
>  <mol_id>  (34) 
STK657641

>  <drugclip_rank>  (34) 
34

>  <conformer>  (34) 
7

>  <align_rmsd>  (34) 
0.47

$$$$
Z3522831516
     RDKit          3D

 44 45  0  0  0  0  0  0  0  0999 V2000
   -5.3778   -1.5241    2.6419 C   0  0  0  0  0  0  0  0  0  0  0  0
   -3.9614   -1.0931    3.0039 C   0  0  0  0  0  0  0  0  0  0  0  0
   -3.3045   -0.1912    1.9411 C   0  0  2  0  0  0  0  0  0  0  0  0
   -3.2042   -0.9232    0.6730 N   0  0  0  0  0  0  0  0  0  0  0  0
   -1.9341    0.2939    2.4415 C   0  0  0  0  0  0  0  0  0  0  0  0
   -1.4665    1.5185    1.6761 C   0  0  0  0  0  0  0  0  0  0  0  0
   -1.9357    2.6198    1.9762 O   0  0  0  0  0  0  0  0  0  0  0  0
   -0.5482    1.3685    0.6415 N   0  0  0  0  0  0  0  0  0  0  0  0
    0.1983    0.1478    0.3467 C   0  0  0  0  0  0  0  0  0  0  0  0
    1.5232    0.0857    1.1047 C   0  0  0  0  0  0  0  0  0  0  0  0
   -0.0549    2.5775   -0.0178 C   0  0  0  0  0  0  0  0  0  0  0  0
    1.2660    3.1375    0.5512 C   0  0  0  0  0  0  0  0  0  0  0  0
    1.2081    3.4731    2.0437 C   0  0  0  0  0  0  0  0  0  0  0  0
    2.5001    2.3028    0.2204 C   0  0  0  0  0  0  0  0  0  0  0  0
    2.6204    0.9187    0.4749 C   0  0  0  0  0  0  0  0  0  0  0  0
    3.5979    2.9841   -0.3495 C   0  0  0  0  0  0  0  0  0  0  0  0
    4.7777    2.3185   -0.6633 C   0  0  0  0  0  0  0  0  0  0  0  0
    5.7857    3.0578   -1.2148 O   0  0  0  0  0  0  0  0  0  0  0  0
    4.8986    0.9590   -0.4104 C   0  0  0  0  0  0  0  0  0  0  0  0
    6.4962    0.0297   -0.8218 Br  0  0  0  0  0  0  0  0  0  0  0  0
    3.8313    0.2650    0.1578 C   0  0  0  0  0  0  0  0  0  0  0  0
   -5.3914   -2.1566    1.7491 H   0  0  0  0  0  0  0  0  0  0  0  0
   -6.0173   -0.6545    2.4603 H   0  0  0  0  0  0  0  0  0  0  0  0
   -5.8157   -2.1000    3.4636 H   0  0  0  0  0  0  0  0  0  0  0  0
   -4.0057   -0.5526    3.9577 H   0  0  0  0  0  0  0  0  0  0  0  0
   -3.3475   -1.9861    3.1769 H   0  0  0  0  0  0  0  0  0  0  0  0
   -3.9567    0.6748    1.7731 H   0  0  0  0  0  0  0  0  0  0  0  0
   -2.6031   -1.7379    0.7750 H   0  0  0  0  0  0  0  0  0  0  0  0
   -2.7899   -0.3245   -0.0413 H   0  0  0  0  0  0  0  0  0  0  0  0
   -1.1924   -0.5075    2.4612 H   0  0  0  0  0  0  0  0  0  0  0  0
   -2.0170    0.6168    3.4887 H   0  0  0  0  0  0  0  0  0  0  0  0
    0.3546    0.0894   -0.7377 H   0  0  0  0  0  0  0  0  0  0  0  0
   -0.4028   -0.7244    0.6084 H   0  0  0  0  0  0  0  0  0  0  0  0
    1.8377   -0.9658    1.1203 H   0  0  0  0  0  0  0  0  0  0  0  0
    1.4018    0.3785    2.1535 H   0  0  0  0  0  0  0  0  0  0  0  0
    0.0573    2.3526   -1.0862 H   0  0  0  0  0  0  0  0  0  0  0  0
   -0.8217    3.3591    0.0457 H   0  0  0  0  0  0  0  0  0  0  0  0
    1.3892    4.1016    0.0359 H   0  0  0  0  0  0  0  0  0  0  0  0
    1.0913    2.5848    2.6705 H   0  0  0  0  0  0  0  0  0  0  0  0
    0.3735    4.1496    2.2551 H   0  0  0  0  0  0  0  0  0  0  0  0
    2.1279    3.9759    2.3640 H   0  0  0  0  0  0  0  0  0  0  0  0
    3.5419    4.0530   -0.5488 H   0  0  0  0  0  0  0  0  0  0  0  0
    6.5381    2.4570   -1.3644 H   0  0  0  0  0  0  0  0  0  0  0  0
    3.9413   -0.7991    0.3592 H   0  0  0  0  0  0  0  0  0  0  0  0
  1  2  1  0
  2  3  1  0
  3  4  1  0
  3  5  1  0
  5  6  1  0
  6  7  2  0
  6  8  1  0
  8  9  1  0
  9 10  1  0
  8 11  1  0
 11 12  1  0
 12 13  1  0
 12 14  1  0
 14 15  2  0
 14 16  1  0
 16 17  2  0
 17 18  1  0
 17 19  1  0
 19 20  1  0
 19 21  2  0
 15 10  1  0
 21 15  1  0
  1 22  1  0
  1 23  1  0
  1 24  1  0
  2 25  1  0
  2 26  1  0
  3 27  1  6
  4 28  1  0
  4 29  1  0
  5 30  1  0
  5 31  1  0
  9 32  1  0
  9 33  1  0
 10 34  1  0
 10 35  1  0
 11 36  1  0
 11 37  1  0
 12 38  1  0
 13 39  1  0
 13 40  1  0
 13 41  1  0
 16 42  1  0
 18 43  1  0
 21 44  1  0
M  END
>  <mol_id>  (35) 
Z3522831516

>  <drugclip_rank>  (35) 
35

>  <conformer>  (35) 
23

>  <align_rmsd>  (35) 
0.466

$$$$
MCULE-4880777263
     RDKit          3D

 39 41  0  0  0  0  0  0  0  0999 V2000
    0.7320    1.9224   -1.3079 C   0  0  0  0  0  0  0  0  0  0  0  0
    1.9358    1.2554   -0.6895 C   0  0  0  0  0  0  0  0  0  0  0  0
    1.8130    0.0982    0.0867 C   0  0  0  0  0  0  0  0  0  0  0  0
    2.9355   -0.5203    0.6504 C   0  0  0  0  0  0  0  0  0  0  0  0
    4.2157   -0.0224    0.4632 C   0  0  0  0  0  0  0  0  0  0  0  0
    4.3700    1.1358   -0.3180 C   0  0  0  0  0  0  0  0  0  0  0  0
    3.2319    1.7552   -0.8855 C   0  0  0  0  0  0  0  0  0  0  0  0
    5.6774    1.6165   -0.4876 C   0  0  0  0  0  0  0  0  0  0  0  0
    5.8855    2.7454   -1.2376 O   0  0  0  0  0  0  0  0  0  0  0  0
    6.7574    0.9697    0.0976 C   0  0  0  0  0  0  0  0  0  0  0  0
    6.5025   -0.1652    0.8526 C   0  0  0  0  0  0  0  0  0  0  0  0
    7.6303   -0.9040    1.5081 C   0  0  0  0  0  0  0  0  0  0  0  0
    5.2559   -0.6602    1.0320 N   0  0  0  0  0  0  0  0  0  0  0  0
   -0.4605    2.2691   -0.4365 C   0  0  0  0  0  0  0  0  0  0  0  0
    0.4128    3.3653   -0.9798 C   0  0  0  0  0  0  0  0  0  0  0  0
   -1.8561    2.0729   -0.9557 C   0  0  0  0  0  0  0  0  0  0  0  0
   -2.3196    0.6133   -0.8566 C   0  0  0  0  0  0  0  0  0  0  0  0
   -2.4507    0.1792    0.5396 N   0  0  0  0  0  0  0  0  0  0  0  0
   -2.8754   -1.2138    0.6123 C   0  0  0  0  0  0  0  0  0  0  0  0
    0.5167    1.6128   -2.3301 H   0  0  0  0  0  0  0  0  0  0  0  0
    0.8267   -0.3292    0.2662 H   0  0  0  0  0  0  0  0  0  0  0  0
    2.8019   -1.4135    1.2561 H   0  0  0  0  0  0  0  0  0  0  0  0
    3.3624    2.6512   -1.4906 H   0  0  0  0  0  0  0  0  0  0  0  0
    6.8410    2.9055   -1.3139 H   0  0  0  0  0  0  0  0  0  0  0  0
    7.7706    1.3333   -0.0162 H   0  0  0  0  0  0  0  0  0  0  0  0
    8.1853   -0.2353    2.1752 H   0  0  0  0  0  0  0  0  0  0  0  0
    7.2536   -1.7417    2.1051 H   0  0  0  0  0  0  0  0  0  0  0  0
    8.3104   -1.3030    0.7500 H   0  0  0  0  0  0  0  0  0  0  0  0
   -0.3983    2.0754    0.6293 H   0  0  0  0  0  0  0  0  0  0  0  0
    0.0301    3.9906   -1.7774 H   0  0  0  0  0  0  0  0  0  0  0  0
    1.0470    3.8942   -0.2758 H   0  0  0  0  0  0  0  0  0  0  0  0
   -1.9150    2.3844   -2.0060 H   0  0  0  0  0  0  0  0  0  0  0  0
   -2.5399    2.7250   -0.3988 H   0  0  0  0  0  0  0  0  0  0  0  0
   -1.6022   -0.0286   -1.3811 H   0  0  0  0  0  0  0  0  0  0  0  0
   -3.2882    0.5203   -1.3649 H   0  0  0  0  0  0  0  0  0  0  0  0
   -3.1355    0.7668    1.0158 H   0  0  0  0  0  0  0  0  0  0  0  0
   -3.8458   -1.3628    0.1287 H   0  0  0  0  0  0  0  0  0  0  0  0
   -2.1379   -1.8768    0.1464 H   0  0  0  0  0  0  0  0  0  0  0  0
   -2.9708   -1.5158    1.6602 H   0  0  0  0  0  0  0  0  0  0  0  0
  1  2  1  0
  2  3  2  0
  3  4  1  0
  4  5  2  0
  5  6  1  0
  6  7  2  0
  6  8  1  0
  8  9  1  0
  8 10  2  0
 10 11  1  0
 11 12  1  0
 11 13  2  0
  1 14  1  0
 14 15  1  0
 14 16  1  0
 16 17  1  0
 17 18  1  0
 18 19  1  0
 15  1  1  0
  7  2  1  0
 13  5  1  0
  1 20  1  0
  3 21  1  0
  4 22  1  0
  7 23  1  0
  9 24  1  0
 10 25  1  0
 12 26  1  0
 12 27  1  0
 12 28  1  0
 14 29  1  0
 15 30  1  0
 15 31  1  0
 16 32  1  0
 16 33  1  0
 17 34  1  0
 17 35  1  0
 18 36  1  0
 19 37  1  0
 19 38  1  0
 19 39  1  0
M  END
>  <mol_id>  (36) 
MCULE-4880777263

>  <drugclip_rank>  (36) 
36

>  <conformer>  (36) 
2

>  <align_rmsd>  (36) 
0.888

$$$$
Z1912578086
     RDKit          3D

 47 49  0  0  0  0  0  0  0  0999 V2000
   -6.1637   -3.1658    0.7733 C   0  0  0  0  0  0  0  0  0  0  0  0
   -5.8700   -1.8688    0.2699 O   0  0  0  0  0  0  0  0  0  0  0  0
   -4.6983   -1.3059    0.8437 C   0  0  0  0  0  0  0  0  0  0  0  0
   -3.3371   -1.8439    0.3473 C   0  0  0  0  0  0  0  0  0  0  0  0
   -3.2545   -2.8444   -0.3675 O   0  0  0  0  0  0  0  0  0  0  0  0
   -2.2046   -1.1462    0.7559 N   0  0  0  0  0  0  0  0  0  0  0  0
   -0.8944   -1.5495    0.2406 C   0  0  0  0  0  0  0  0  0  0  0  0
    0.0621   -0.3527    0.0706 C   0  0  0  0  0  0  0  0  0  0  0  0
    0.2156    0.5165    1.2587 N   0  0  0  0  0  0  0  0  0  0  0  0
   -0.8341    0.2821    2.2665 C   0  0  0  0  0  0  0  0  0  0  0  0
   -2.2160    0.0212    1.6413 C   0  0  0  0  0  0  0  0  0  0  0  0
    1.5529    0.4355    1.8671 C   0  0  0  0  0  0  0  0  0  0  0  0
    2.6374    1.0591    1.0024 C   0  0  0  0  0  0  0  0  0  0  0  0
    2.5010    2.4269    0.6843 C   0  0  0  0  0  0  0  0  0  0  0  0
    3.4541    3.0786   -0.0863 C   0  0  0  0  0  0  0  0  0  0  0  0
    4.5506    2.3610   -0.5381 C   0  0  0  0  0  0  0  0  0  0  0  0
    5.4853    3.0252   -1.2989 O   0  0  0  0  0  0  0  0  0  0  0  0
    3.7769    0.3384    0.5253 C   0  0  0  0  0  0  0  0  0  0  0  0
    4.7420    1.0128   -0.2558 C   0  0  0  0  0  0  0  0  0  0  0  0
    4.0375   -1.0279    0.7650 C   0  0  0  0  0  0  0  0  0  0  0  0
    5.1803   -1.6415    0.2550 C   0  0  0  0  0  0  0  0  0  0  0  0
    6.0629   -0.8840   -0.4958 C   0  0  0  0  0  0  0  0  0  0  0  0
    5.8538    0.4262   -0.7517 N   0  0  0  0  0  0  0  0  0  0  0  0
    7.3043   -1.5078   -1.0590 C   0  0  0  0  0  0  0  0  0  0  0  0
   -6.3563   -3.1205    1.8497 H   0  0  0  0  0  0  0  0  0  0  0  0
   -7.0695   -3.5268    0.2771 H   0  0  0  0  0  0  0  0  0  0  0  0
   -5.3546   -3.8705    0.5694 H   0  0  0  0  0  0  0  0  0  0  0  0
   -4.7432   -1.4067    1.9343 H   0  0  0  0  0  0  0  0  0  0  0  0
   -4.7323   -0.2378    0.6018 H   0  0  0  0  0  0  0  0  0  0  0  0
   -1.0064   -2.0667   -0.7191 H   0  0  0  0  0  0  0  0  0  0  0  0
   -0.4751   -2.2677    0.9556 H   0  0  0  0  0  0  0  0  0  0  0  0
   -0.3387    0.2851   -0.7284 H   0  0  0  0  0  0  0  0  0  0  0  0
    1.0238   -0.7254   -0.3005 H   0  0  0  0  0  0  0  0  0  0  0  0
   -0.9012    1.1554    2.9264 H   0  0  0  0  0  0  0  0  0  0  0  0
   -0.5722   -0.5824    2.8928 H   0  0  0  0  0  0  0  0  0  0  0  0
   -2.5349    0.8824    1.0425 H   0  0  0  0  0  0  0  0  0  0  0  0
   -2.9545   -0.1276    2.4342 H   0  0  0  0  0  0  0  0  0  0  0  0
    1.5620    1.0001    2.8101 H   0  0  0  0  0  0  0  0  0  0  0  0
    1.7744   -0.5982    2.1466 H   0  0  0  0  0  0  0  0  0  0  0  0
    1.6351    2.9843    1.0380 H   0  0  0  0  0  0  0  0  0  0  0  0
    3.3461    4.1293   -0.3353 H   0  0  0  0  0  0  0  0  0  0  0  0
    6.1509    2.3316   -1.4987 H   0  0  0  0  0  0  0  0  0  0  0  0
    3.3590   -1.6428    1.3467 H   0  0  0  0  0  0  0  0  0  0  0  0
    5.3719   -2.6925    0.4479 H   0  0  0  0  0  0  0  0  0  0  0  0
    7.9317   -1.8960   -0.2507 H   0  0  0  0  0  0  0  0  0  0  0  0
    7.0419   -2.3257   -1.7376 H   0  0  0  0  0  0  0  0  0  0  0  0
    7.8887   -0.7721   -1.6215 H   0  0  0  0  0  0  0  0  0  0  0  0
  1  2  1  0
  2  3  1  0
  3  4  1  0
  4  5  2  0
  4  6  1  0
  6  7  1  0
  7  8  1  0
  8  9  1  0
  9 10  1  0
 10 11  1  0
  9 12  1  0
 12 13  1  0
 13 14  2  0
 14 15  1  0
 15 16  2  0
 16 17  1  0
 13 18  1  0
 18 19  2  0
 18 20  1  0
 20 21  2  0
 21 22  1  0
 22 23  2  0
 22 24  1  0
 11  6  1  0
 19 16  1  0
 23 19  1  0
  1 25  1  0
  1 26  1  0
  1 27  1  0
  3 28  1  0
  3 29  1  0
  7 30  1  0
  7 31  1  0
  8 32  1  0
  8 33  1  0
 10 34  1  0
 10 35  1  0
 11 36  1  0
 11 37  1  0
 12 38  1  0
 12 39  1  0
 14 40  1  0
 15 41  1  0
 17 42  1  0
 20 43  1  0
 21 44  1  0
 24 45  1  0
 24 46  1  0
 24 47  1  0
M  END
>  <mol_id>  (37) 
Z1912578086

>  <drugclip_rank>  (37) 
37

>  <conformer>  (37) 
31

>  <align_rmsd>  (37) 
0.345

$$$$
MCULE-4554608817
     RDKit          3D

 40 41  0  0  0  0  0  0  0  0999 V2000
    2.8832    1.2057    1.1403 C   0  0  0  0  0  0  0  0  0  0  0  0
    3.0984   -0.0565    1.5649 C   0  0  0  0  0  0  0  0  0  0  0  0
    2.0822   -0.9378    1.8922 O   0  0  0  0  0  0  0  0  0  0  0  0
    4.5066   -0.5292    1.6993 C   0  0  0  0  0  0  0  0  0  0  0  0
    4.8078   -1.6611    2.0612 O   0  0  0  0  0  0  0  0  0  0  0  0
    5.5677    0.4363    1.3641 C   0  0  0  0  0  0  0  0  0  0  0  0
    5.2321    1.6636    0.9487 C   0  0  0  0  0  0  0  0  0  0  0  0
    3.9176    2.0790    0.8258 O   0  0  0  0  0  0  0  0  0  0  0  0
    6.2484    2.7070    0.5890 C   0  0  0  0  0  0  0  0  0  0  0  0
    6.0980    3.0859   -0.7735 O   0  0  0  0  0  0  0  0  0  0  0  0
    1.5209    1.8421    0.9502 C   0  0  0  0  0  0  0  0  0  0  0  0
    0.4153    0.8835    0.7858 N   0  0  0  0  0  0  0  0  0  0  0  0
   -0.8834    1.5014    1.1376 C   0  0  0  0  0  0  0  0  0  0  0  0
   -2.1252    0.7371    0.6001 C   0  0  0  0  0  0  0  0  0  0  0  0
   -1.8319   -0.6699    0.2829 N   0  0  0  0  0  0  0  0  0  0  0  0
   -0.7478   -0.7497   -0.7202 C   0  0  0  0  0  0  0  0  0  0  0  0
    0.3354    0.3569   -0.5920 C   0  0  0  0  0  0  0  0  0  0  0  0
   -3.0445   -1.3970   -0.1257 C   0  0  0  0  0  0  0  0  0  0  0  0
   -2.8397   -2.9152   -0.2083 C   0  0  0  0  0  0  0  0  0  0  0  0
   -4.1044   -3.5802   -0.5464 C   0  0  0  0  0  0  0  0  0  0  0  0
   -5.1068   -4.0951   -0.8234 N   0  0  0  0  0  0  0  0  0  0  0  0
    1.2316   -0.4865    1.6922 H   0  0  0  0  0  0  0  0  0  0  0  0
    6.5886    0.0940    1.4711 H   0  0  0  0  0  0  0  0  0  0  0  0
    7.2734    2.3494    0.7311 H   0  0  0  0  0  0  0  0  0  0  0  0
    6.1138    3.5980    1.2102 H   0  0  0  0  0  0  0  0  0  0  0  0
    6.0239    2.2696   -1.2961 H   0  0  0  0  0  0  0  0  0  0  0  0
    1.3480    2.4524    1.8472 H   0  0  0  0  0  0  0  0  0  0  0  0
    1.5470    2.5382    0.1014 H   0  0  0  0  0  0  0  0  0  0  0  0
   -0.9388    2.5340    0.7682 H   0  0  0  0  0  0  0  0  0  0  0  0
   -0.9446    1.5418    2.2320 H   0  0  0  0  0  0  0  0  0  0  0  0
   -2.9158    0.7997    1.3579 H   0  0  0  0  0  0  0  0  0  0  0  0
   -2.4965    1.2479   -0.2987 H   0  0  0  0  0  0  0  0  0  0  0  0
   -0.2541   -1.7217   -0.6021 H   0  0  0  0  0  0  0  0  0  0  0  0
   -1.1505   -0.7062   -1.7403 H   0  0  0  0  0  0  0  0  0  0  0  0
    1.2957   -0.0682   -0.9066 H   0  0  0  0  0  0  0  0  0  0  0  0
    0.1004    1.1723   -1.2897 H   0  0  0  0  0  0  0  0  0  0  0  0
   -3.4208   -1.0113   -1.0831 H   0  0  0  0  0  0  0  0  0  0  0  0
   -3.8345   -1.2077    0.6142 H   0  0  0  0  0  0  0  0  0  0  0  0
   -2.4686   -3.2958    0.7505 H   0  0  0  0  0  0  0  0  0  0  0  0
   -2.0926   -3.1644   -0.9697 H   0  0  0  0  0  0  0  0  0  0  0  0
  1  2  2  0
  2  3  1  0
  2  4  1  0
  4  5  2  0
  4  6  1  0
  6  7  2  0
  7  8  1  0
  7  9  1  0
  9 10  1  0
  1 11  1  0
 11 12  1  0
 12 13  1  0
 13 14  1  0
 14 15  1  0
 15 16  1  0
 16 17  1  0
 15 18  1  0
 18 19  1  0
 19 20  1  0
 20 21  3  0
  8  1  1  0
 17 12  1  0
  3 22  1  0
  6 23  1  0
  9 24  1  0
  9 25  1  0
 10 26  1  0
 11 27  1  0
 11 28  1  0
 13 29  1  0
 13 30  1  0
 14 31  1  0
 14 32  1  0
 16 33  1  0
 16 34  1  0
 17 35  1  0
 17 36  1  0
 18 37  1  0
 18 38  1  0
 19 39  1  0
 19 40  1  0
M  END
>  <mol_id>  (38) 
MCULE-4554608817

>  <drugclip_rank>  (38) 
38

>  <conformer>  (38) 
26

>  <align_rmsd>  (38) 
0.672

$$$$
STL032978
     RDKit          3D

 45 47  0  0  0  0  0  0  0  0999 V2000
    4.8048    4.7966    0.9243 C   0  0  0  0  0  0  0  0  0  0  0  0
    4.3297    3.3980    0.6477 C   0  0  0  0  0  0  0  0  0  0  0  0
    4.9157    2.6159   -0.3482 C   0  0  0  0  0  0  0  0  0  0  0  0
    5.9240    3.1452   -1.1021 O   0  0  0  0  0  0  0  0  0  0  0  0
    4.4908    1.3094   -0.5754 C   0  0  0  0  0  0  0  0  0  0  0  0
    3.4686    0.7594    0.2061 C   0  0  0  0  0  0  0  0  0  0  0  0
    2.8587    1.5009    1.2262 C   0  0  0  0  0  0  0  0  0  0  0  0
    3.3193    2.8099    1.4312 C   0  0  0  0  0  0  0  0  0  0  0  0
    1.7813    0.9774    2.0888 C   0  0  0  0  0  0  0  0  0  0  0  0
    1.3495    1.7563    3.0941 C   0  0  0  0  0  0  0  0  0  0  0  0
    1.8244    3.1221    3.3367 C   0  0  0  0  0  0  0  0  0  0  0  0
    2.7837    3.6050    2.4707 O   0  0  0  0  0  0  0  0  0  0  0  0
    1.3705    3.7876    4.2599 O   0  0  0  0  0  0  0  0  0  0  0  0
    1.2269   -0.4232    1.9274 C   0  0  0  0  0  0  0  0  0  0  0  0
    0.0223   -0.5814    1.1161 N   0  0  0  0  0  0  0  0  0  0  0  0
    0.1649   -0.2675   -0.3109 C   0  0  0  0  0  0  0  0  0  0  0  0
   -1.1797   -0.1803   -1.0868 C   0  0  0  0  0  0  0  0  0  0  0  0
   -2.2585   -0.9523   -0.4516 N   0  0  0  0  0  0  0  0  0  0  0  0
   -2.4736   -0.4714    0.9325 C   0  0  0  0  0  0  0  0  0  0  0  0
   -1.1932    0.0122    1.6714 C   0  0  0  0  0  0  0  0  0  0  0  0
   -3.4937   -0.9165   -1.2585 C   0  0  0  0  0  0  0  0  0  0  0  0
   -4.5256   -1.9412   -0.7636 C   0  0  0  0  0  0  0  0  0  0  0  0
   -3.9146   -3.2255   -0.6520 O   0  0  0  0  0  0  0  0  0  0  0  0
    5.2758    5.2483    0.0455 H   0  0  0  0  0  0  0  0  0  0  0  0
    3.9683    5.4500    1.1936 H   0  0  0  0  0  0  0  0  0  0  0  0
    5.5300    4.7886    1.7439 H   0  0  0  0  0  0  0  0  0  0  0  0
    6.2378    2.4770   -1.7328 H   0  0  0  0  0  0  0  0  0  0  0  0
    4.9435    0.7002   -1.3527 H   0  0  0  0  0  0  0  0  0  0  0  0
    3.1714   -0.2629   -0.0093 H   0  0  0  0  0  0  0  0  0  0  0  0
    0.5885    1.4194    3.7894 H   0  0  0  0  0  0  0  0  0  0  0  0
    1.0096   -0.8270    2.9274 H   0  0  0  0  0  0  0  0  0  0  0  0
    1.9994   -1.1090    1.5612 H   0  0  0  0  0  0  0  0  0  0  0  0
    0.6750    0.6892   -0.4638 H   0  0  0  0  0  0  0  0  0  0  0  0
    0.7814   -1.0499   -0.7693 H   0  0  0  0  0  0  0  0  0  0  0  0
   -1.0045   -0.5405   -2.1079 H   0  0  0  0  0  0  0  0  0  0  0  0
   -1.4781    0.8743   -1.1629 H   0  0  0  0  0  0  0  0  0  0  0  0
   -2.9055   -1.2981    1.5092 H   0  0  0  0  0  0  0  0  0  0  0  0
   -3.1977    0.3534    0.9527 H   0  0  0  0  0  0  0  0  0  0  0  0
   -1.2994   -0.2428    2.7328 H   0  0  0  0  0  0  0  0  0  0  0  0
   -1.1415    1.1064    1.6022 H   0  0  0  0  0  0  0  0  0  0  0  0
   -3.2376   -1.1936   -2.2891 H   0  0  0  0  0  0  0  0  0  0  0  0
   -3.9342    0.0871   -1.2868 H   0  0  0  0  0  0  0  0  0  0  0  0
   -5.3592   -2.0172   -1.4682 H   0  0  0  0  0  0  0  0  0  0  0  0
   -4.9300   -1.6657    0.2152 H   0  0  0  0  0  0  0  0  0  0  0  0
   -2.9947   -3.0380   -0.3703 H   0  0  0  0  0  0  0  0  0  0  0  0
  1  2  1  0
  2  3  2  0
  3  4  1  0
  3  5  1  0
  5  6  2  0
  6  7  1  0
  7  8  2  0
  7  9  1  0
  9 10  2  0
 10 11  1  0
 11 12  1  0
 11 13  2  0
  9 14  1  0
 14 15  1  0
 15 16  1  0
 16 17  1  0
 17 18  1  0
 18 19  1  0
 19 20  1  0
 18 21  1  0
 21 22  1  0
 22 23  1  0
  8  2  1  0
 12  8  1  0
 20 15  1  0
  1 24  1  0
  1 25  1  0
  1 26  1  0
  4 27  1  0
  5 28  1  0
  6 29  1  0
 10 30  1  0
 14 31  1  0
 14 32  1  0
 16 33  1  0
 16 34  1  0
 17 35  1  0
 17 36  1  0
 19 37  1  0
 19 38  1  0
 20 39  1  0
 20 40  1  0
 21 41  1  0
 21 42  1  0
 22 43  1  0
 22 44  1  0
 23 45  1  0
M  END
>  <mol_id>  (39) 
STL032978

>  <drugclip_rank>  (39) 
39

>  <conformer>  (39) 
21

>  <align_rmsd>  (39) 
0.698

$$$$
MCULE-8317582243
     RDKit          3D

 50 52  0  0  0  0  0  0  0  0999 V2000
    2.1357    1.1666    0.2764 C   0  0  0  0  0  0  0  0  0  0  0  0
    3.2200    0.5270   -0.3573 C   0  0  0  0  0  0  0  0  0  0  0  0
    4.3755    1.2309   -0.7221 C   0  0  0  0  0  0  0  0  0  0  0  0
    4.4640    2.6080   -0.4529 C   0  0  0  0  0  0  0  0  0  0  0  0
    3.3906    3.2557    0.1640 C   0  0  0  0  0  0  0  0  0  0  0  0
    2.2276    2.5494    0.5125 C   0  0  0  0  0  0  0  0  0  0  0  0
    1.0931    3.2746    1.1854 C   0  0  0  0  0  0  0  0  0  0  0  0
   -0.2058    2.5219    0.9599 C   0  0  0  0  0  0  0  0  0  0  0  0
   -0.0592    1.1877    1.4342 O   0  0  0  0  0  0  0  0  0  0  0  0
    0.8743    0.3823    0.6780 C   0  0  0  0  0  0  0  0  0  0  0  0
    1.2387   -0.7901    1.6124 C   0  0  0  0  0  0  0  0  0  0  0  0
    0.0202   -1.6427    1.9615 C   0  0  0  0  0  0  0  0  0  0  0  0
   -0.7000   -2.0896    0.7677 N   0  0  0  0  0  0  0  0  0  0  0  0
   -1.0423   -1.0377   -0.1859 C   0  0  0  0  0  0  0  0  0  0  0  0
    0.1632   -0.1857   -0.5669 C   0  0  0  0  0  0  0  0  0  0  0  0
   -1.5285   -3.2172    0.7764 C   0  0  0  0  0  0  0  0  0  0  0  0
   -2.3855   -3.4087   -0.0929 O   0  0  0  0  0  0  0  0  0  0  0  0
   -1.3355   -4.2628    1.8850 C   0  0  0  0  0  0  0  0  0  0  0  0
   -1.8721   -3.8199    3.1877 N   0  0  0  0  0  0  0  0  0  0  0  0
   -3.3183   -3.6246    3.1302 C   0  0  0  0  0  0  0  0  0  0  0  0
    5.6304    3.2247   -0.8324 O   0  0  0  0  0  0  0  0  0  0  0  0
    5.7675    4.6095   -0.5502 C   0  0  0  0  0  0  0  0  0  0  0  0
    5.4656    0.6669   -1.3386 O   0  0  0  0  0  0  0  0  0  0  0  0
    5.4143   -0.7193   -1.6410 C   0  0  0  0  0  0  0  0  0  0  0  0
    3.1462   -0.5355   -0.5632 H   0  0  0  0  0  0  0  0  0  0  0  0
    3.4297    4.3178    0.3840 H   0  0  0  0  0  0  0  0  0  0  0  0
    1.3158    3.3286    2.2578 H   0  0  0  0  0  0  0  0  0  0  0  0
    0.9968    4.2939    0.7959 H   0  0  0  0  0  0  0  0  0  0  0  0
   -0.5099    2.5264   -0.0926 H   0  0  0  0  0  0  0  0  0  0  0  0
   -1.0102    2.9932    1.5338 H   0  0  0  0  0  0  0  0  0  0  0  0
    1.9889   -1.4432    1.1502 H   0  0  0  0  0  0  0  0  0  0  0  0
    1.6759   -0.4097    2.5446 H   0  0  0  0  0  0  0  0  0  0  0  0
   -0.6876   -1.0851    2.5862 H   0  0  0  0  0  0  0  0  0  0  0  0
    0.3662   -2.4964    2.5483 H   0  0  0  0  0  0  0  0  0  0  0  0
   -1.4620   -1.4777   -1.0976 H   0  0  0  0  0  0  0  0  0  0  0  0
   -1.8323   -0.4250    0.2653 H   0  0  0  0  0  0  0  0  0  0  0  0
    0.8537   -0.8058   -1.1528 H   0  0  0  0  0  0  0  0  0  0  0  0
   -0.1725    0.6190   -1.2311 H   0  0  0  0  0  0  0  0  0  0  0  0
   -1.8176   -5.1969    1.5717 H   0  0  0  0  0  0  0  0  0  0  0  0
   -0.2678   -4.4891    1.9762 H   0  0  0  0  0  0  0  0  0  0  0  0
   -1.6749   -4.5483    3.8735 H   0  0  0  0  0  0  0  0  0  0  0  0
   -3.8353   -4.5317    2.8005 H   0  0  0  0  0  0  0  0  0  0  0  0
   -3.5892   -2.7933    2.4723 H   0  0  0  0  0  0  0  0  0  0  0  0
   -3.6865   -3.3752    4.1305 H   0  0  0  0  0  0  0  0  0  0  0  0
    6.7532    4.9269   -0.9041 H   0  0  0  0  0  0  0  0  0  0  0  0
    5.0168    5.1981   -1.0875 H   0  0  0  0  0  0  0  0  0  0  0  0
    5.7248    4.8001    0.5272 H   0  0  0  0  0  0  0  0  0  0  0  0
    5.3300   -1.3197   -0.7293 H   0  0  0  0  0  0  0  0  0  0  0  0
    4.6010   -0.9419   -2.3396 H   0  0  0  0  0  0  0  0  0  0  0  0
    6.3549   -0.9900   -2.1303 H   0  0  0  0  0  0  0  0  0  0  0  0
  1  2  2  0
  2  3  1  0
  3  4  2  0
  4  5  1  0
  5  6  2  0
  6  7  1  0
  7  8  1  0
  8  9  1  0
  9 10  1  0
 10 11  1  0
 11 12  1  0
 12 13  1  0
 13 14  1  0
 14 15  1  0
 13 16  1  0
 16 17  2  0
 16 18  1  0
 18 19  1  0
 19 20  1  0
  4 21  1  0
 21 22  1  0
  3 23  1  0
 23 24  1  0
  6  1  1  0
 15 10  1  0
 10  1  1  0
  2 25  1  0
  5 26  1  0
  7 27  1  0
  7 28  1  0
  8 29  1  0
  8 30  1  0
 11 31  1  0
 11 32  1  0
 12 33  1  0
 12 34  1  0
 14 35  1  0
 14 36  1  0
 15 37  1  0
 15 38  1  0
 18 39  1  0
 18 40  1  0
 19 41  1  0
 20 42  1  0
 20 43  1  0
 20 44  1  0
 22 45  1  0
 22 46  1  0
 22 47  1  0
 24 48  1  0
 24 49  1  0
 24 50  1  0
M  END
>  <mol_id>  (40) 
MCULE-8317582243

>  <drugclip_rank>  (40) 
40

>  <conformer>  (40) 
4

>  <align_rmsd>  (40) 
0.711

$$$$
STL520190
     RDKit          3D

 40 41  0  0  0  0  0  0  0  0999 V2000
    6.0036    2.6704   -0.9432 O   0  0  0  0  0  0  0  0  0  0  0  0
    6.0176    1.5943   -0.0161 C   0  0  0  0  0  0  0  0  0  0  0  0
    4.7938    1.6775    0.8442 C   0  0  0  0  0  0  0  0  0  0  0  0
    3.6041    1.4555    0.1711 O   0  0  0  0  0  0  0  0  0  0  0  0
    4.8469    1.9235    2.1590 C   0  0  0  0  0  0  0  0  0  0  0  0
    3.5967    1.9786    2.9354 C   0  0  0  0  0  0  0  0  0  0  0  0
    3.6373    2.1744    4.1453 O   0  0  0  0  0  0  0  0  0  0  0  0
    2.3265    1.7787    2.1805 C   0  0  0  0  0  0  0  0  0  0  0  0
    1.1318    1.8632    2.8759 O   0  0  0  0  0  0  0  0  0  0  0  0
    2.3977    1.5334    0.8564 C   0  0  0  0  0  0  0  0  0  0  0  0
    1.2055    1.3178   -0.0543 C   0  0  0  0  0  0  0  0  0  0  0  0
   -0.0272    0.8730    0.6340 N   0  0  0  0  0  0  0  0  0  0  0  0
    0.0279   -0.5881    0.9042 C   0  0  0  0  0  0  0  0  0  0  0  0
   -1.2732   -1.0983    1.5631 C   0  0  0  0  0  0  0  0  0  0  0  0
   -2.4672   -0.8207    0.7358 N   0  0  0  0  0  0  0  0  0  0  0  0
   -2.5188    0.6215    0.4231 C   0  0  0  0  0  0  0  0  0  0  0  0
   -1.2078    1.1324   -0.2212 C   0  0  0  0  0  0  0  0  0  0  0  0
   -3.6833   -1.2994    1.4184 C   0  0  0  0  0  0  0  0  0  0  0  0
   -4.9489   -1.3154    0.5514 C   0  0  0  0  0  0  0  0  0  0  0  0
   -4.8403   -2.2606   -0.5674 C   0  0  0  0  0  0  0  0  0  0  0  0
   -4.7934   -3.0121   -1.4511 N   0  0  0  0  0  0  0  0  0  0  0  0
    6.7793    2.5583   -1.5175 H   0  0  0  0  0  0  0  0  0  0  0  0
    6.0266    0.6494   -0.5693 H   0  0  0  0  0  0  0  0  0  0  0  0
    6.9376    1.6586    0.5742 H   0  0  0  0  0  0  0  0  0  0  0  0
    5.7666    2.0946    2.7019 H   0  0  0  0  0  0  0  0  0  0  0  0
    0.4214    1.6415    2.2353 H   0  0  0  0  0  0  0  0  0  0  0  0
    1.0235    2.2863   -0.5400 H   0  0  0  0  0  0  0  0  0  0  0  0
    1.4687    0.6157   -0.8567 H   0  0  0  0  0  0  0  0  0  0  0  0
    0.2023   -1.1486   -0.0244 H   0  0  0  0  0  0  0  0  0  0  0  0
    0.8607   -0.8125    1.5807 H   0  0  0  0  0  0  0  0  0  0  0  0
   -1.1750   -2.1806    1.7109 H   0  0  0  0  0  0  0  0  0  0  0  0
   -1.3780   -0.6391    2.5555 H   0  0  0  0  0  0  0  0  0  0  0  0
   -2.7213    1.2039    1.3319 H   0  0  0  0  0  0  0  0  0  0  0  0
   -3.3302    0.8239   -0.2842 H   0  0  0  0  0  0  0  0  0  0  0  0
   -1.0827    0.6640   -1.2070 H   0  0  0  0  0  0  0  0  0  0  0  0
   -1.3092    2.2127   -0.3816 H   0  0  0  0  0  0  0  0  0  0  0  0
   -3.5121   -2.3264    1.7693 H   0  0  0  0  0  0  0  0  0  0  0  0
   -3.8743   -0.6933    2.3140 H   0  0  0  0  0  0  0  0  0  0  0  0
   -5.1866   -0.3136    0.1795 H   0  0  0  0  0  0  0  0  0  0  0  0
   -5.7950   -1.6144    1.1822 H   0  0  0  0  0  0  0  0  0  0  0  0
  1  2  1  0
  2  3  1  0
  3  4  1  0
  3  5  2  0
  5  6  1  0
  6  7  2  0
  6  8  1  0
  8  9  1  0
  8 10  2  0
 10 11  1  0
 11 12  1  0
 12 13  1  0
 13 14  1  0
 14 15  1  0
 15 16  1  0
 16 17  1  0
 15 18  1  0
 18 19  1  0
 19 20  1  0
 20 21  3  0
 10  4  1  0
 17 12  1  0
  1 22  1  0
  2 23  1  0
  2 24  1  0
  5 25  1  0
  9 26  1  0
 11 27  1  0
 11 28  1  0
 13 29  1  0
 13 30  1  0
 14 31  1  0
 14 32  1  0
 16 33  1  0
 16 34  1  0
 17 35  1  0
 17 36  1  0
 18 37  1  0
 18 38  1  0
 19 39  1  0
 19 40  1  0
M  END
>  <mol_id>  (41) 
STL520190

>  <drugclip_rank>  (41) 
41

>  <conformer>  (41) 
18

>  <align_rmsd>  (41) 
0.612

$$$$
STL520269
     RDKit          3D

 43 44  0  0  0  0  0  0  0  0999 V2000
    5.8185    2.9169   -0.8748 O   0  0  0  0  0  0  0  0  0  0  0  0
    5.9832    2.9124    0.5362 C   0  0  0  0  0  0  0  0  0  0  0  0
    4.6325    2.9388    1.1837 C   0  0  0  0  0  0  0  0  0  0  0  0
    3.8796    1.7934    0.9861 O   0  0  0  0  0  0  0  0  0  0  0  0
    4.1981    3.9739    1.9130 C   0  0  0  0  0  0  0  0  0  0  0  0
    2.8595    3.9170    2.5244 C   0  0  0  0  0  0  0  0  0  0  0  0
    2.4620    4.8526    3.2101 O   0  0  0  0  0  0  0  0  0  0  0  0
    2.0522    2.6910    2.2630 C   0  0  0  0  0  0  0  0  0  0  0  0
    0.7828    2.6142    2.8110 O   0  0  0  0  0  0  0  0  0  0  0  0
    2.5979    1.7092    1.5167 C   0  0  0  0  0  0  0  0  0  0  0  0
    1.9142    0.4042    1.1613 C   0  0  0  0  0  0  0  0  0  0  0  0
    0.4365    0.4422    1.2225 N   0  0  0  0  0  0  0  0  0  0  0  0
   -0.1168    1.0679   -0.0095 C   0  0  0  0  0  0  0  0  0  0  0  0
   -1.6627    1.0565   -0.0232 C   0  0  0  0  0  0  0  0  0  0  0  0
   -2.2057   -0.3128    0.0968 N   0  0  0  0  0  0  0  0  0  0  0  0
   -1.6499   -0.9516    1.3051 C   0  0  0  0  0  0  0  0  0  0  0  0
   -0.1046   -0.9335    1.3161 C   0  0  0  0  0  0  0  0  0  0  0  0
   -3.6740   -0.3066    0.1539 C   0  0  0  0  0  0  0  0  0  0  0  0
   -4.3163    0.0769   -1.1617 C   0  0  0  0  0  0  0  0  0  0  0  0
   -5.1402    1.1334   -1.2710 C   0  0  0  0  0  0  0  0  0  0  0  0
   -4.0101   -0.8056   -2.3402 C   0  0  0  0  0  0  0  0  0  0  0  0
    6.7068    2.8493   -1.2627 H   0  0  0  0  0  0  0  0  0  0  0  0
    6.5240    2.0060    0.8274 H   0  0  0  0  0  0  0  0  0  0  0  0
    6.5879    3.7812    0.8162 H   0  0  0  0  0  0  0  0  0  0  0  0
    4.7739    4.8738    2.0821 H   0  0  0  0  0  0  0  0  0  0  0  0
    0.3783    1.7896    2.4630 H   0  0  0  0  0  0  0  0  0  0  0  0
    2.2468    0.0643    0.1714 H   0  0  0  0  0  0  0  0  0  0  0  0
    2.2905   -0.3343    1.8824 H   0  0  0  0  0  0  0  0  0  0  0  0
    0.2145    2.1104   -0.0793 H   0  0  0  0  0  0  0  0  0  0  0  0
    0.2507    0.5488   -0.9054 H   0  0  0  0  0  0  0  0  0  0  0  0
   -2.0322    1.6927    0.7925 H   0  0  0  0  0  0  0  0  0  0  0  0
   -1.9876    1.5103   -0.9665 H   0  0  0  0  0  0  0  0  0  0  0  0
   -2.0208   -0.4536    2.2113 H   0  0  0  0  0  0  0  0  0  0  0  0
   -1.9766   -1.9976    1.3493 H   0  0  0  0  0  0  0  0  0  0  0  0
    0.2327   -1.3926    2.2533 H   0  0  0  0  0  0  0  0  0  0  0  0
    0.2713   -1.5548    0.4917 H   0  0  0  0  0  0  0  0  0  0  0  0
   -4.0332   -1.3165    0.3946 H   0  0  0  0  0  0  0  0  0  0  0  0
   -4.0266    0.3421    0.9671 H   0  0  0  0  0  0  0  0  0  0  0  0
   -5.6039    1.3964   -2.2169 H   0  0  0  0  0  0  0  0  0  0  0  0
   -5.3681    1.7671   -0.4193 H   0  0  0  0  0  0  0  0  0  0  0  0
   -4.5723   -0.5075   -3.2317 H   0  0  0  0  0  0  0  0  0  0  0  0
   -4.2740   -1.8442   -2.1157 H   0  0  0  0  0  0  0  0  0  0  0  0
   -2.9458   -0.7621   -2.5917 H   0  0  0  0  0  0  0  0  0  0  0  0
  1  2  1  0
  2  3  1  0
  3  4  1  0
  3  5  2  0
  5  6  1  0
  6  7  2  0
  6  8  1  0
  8  9  1  0
  8 10  2  0
 10 11  1  0
 11 12  1  0
 12 13  1  0
 13 14  1  0
 14 15  1  0
 15 16  1  0
 16 17  1  0
 15 18  1  0
 18 19  1  0
 19 20  2  0
 19 21  1  0
 10  4  1  0
 17 12  1  0
  1 22  1  0
  2 23  1  0
  2 24  1  0
  5 25  1  0
  9 26  1  0
 11 27  1  0
 11 28  1  0
 13 29  1  0
 13 30  1  0
 14 31  1  0
 14 32  1  0
 16 33  1  0
 16 34  1  0
 17 35  1  0
 17 36  1  0
 18 37  1  0
 18 38  1  0
 20 39  1  0
 20 40  1  0
 21 41  1  0
 21 42  1  0
 21 43  1  0
M  END
>  <mol_id>  (42) 
STL520269

>  <drugclip_rank>  (42) 
42

>  <conformer>  (42) 
9

>  <align_rmsd>  (42) 
0.714

$$$$
MCULE-3716360067
     RDKit          3D

 48 49  0  0  0  0  0  0  0  0999 V2000
    4.7052    1.4512   -0.8506 C   0  0  0  0  0  0  0  0  0  0  0  0
    4.5584    2.7723   -0.3937 C   0  0  0  0  0  0  0  0  0  0  0  0
    5.4970    3.6758   -0.8195 O   0  0  0  0  0  0  0  0  0  0  0  0
    5.4810    4.9661   -0.2239 C   0  0  0  0  0  0  0  0  0  0  0  0
    3.4849    3.0786    0.4410 C   0  0  0  0  0  0  0  0  0  0  0  0
    2.5868    2.0806    0.8322 C   0  0  0  0  0  0  0  0  0  0  0  0
    2.7367    0.7484    0.4055 C   0  0  0  0  0  0  0  0  0  0  0  0
    3.8178    0.4379   -0.4380 C   0  0  0  0  0  0  0  0  0  0  0  0
    4.0805   -1.1836   -0.9957 Cl  0  0  0  0  0  0  0  0  0  0  0  0
    1.7163   -0.2668    0.8858 C   0  0  0  0  0  0  0  0  0  0  0  0
    0.3386   -0.1191    0.2022 C   0  0  0  0  0  0  0  0  0  0  0  0
    0.3472   -0.5783   -1.2626 C   0  0  0  0  0  0  0  0  0  0  0  0
    0.8104   -1.9253   -1.3538 O   0  0  0  0  0  0  0  0  0  0  0  0
   -1.0562   -0.4973   -1.8536 C   0  0  0  0  0  0  0  0  0  0  0  0
   -2.0715   -1.2371   -0.9818 C   0  0  0  0  0  0  0  0  0  0  0  0
   -2.0673   -0.7295    0.4024 N   0  0  0  0  0  0  0  0  0  0  0  0
   -3.1051   -1.4288    1.1844 C   0  0  0  0  0  0  0  0  0  0  0  0
   -3.3884   -0.7597    2.5353 C   0  0  0  0  0  0  0  0  0  0  0  0
   -4.5616   -1.4227    3.2434 C   0  0  0  0  0  0  0  0  0  0  0  0
   -0.7265   -0.9009    0.9962 C   0  0  0  0  0  0  0  0  0  0  0  0
    5.7790    1.1237   -1.6514 O   0  0  0  0  0  0  0  0  0  0  0  0
    5.5003    1.4512   -3.0125 C   0  0  0  0  0  0  0  0  0  0  0  0
    6.3427    5.5215   -0.6067 H   0  0  0  0  0  0  0  0  0  0  0  0
    4.5784    5.5170   -0.5074 H   0  0  0  0  0  0  0  0  0  0  0  0
    5.5821    4.9038    0.8648 H   0  0  0  0  0  0  0  0  0  0  0  0
    3.3147    4.0850    0.8099 H   0  0  0  0  0  0  0  0  0  0  0  0
    1.7605    2.3514    1.4890 H   0  0  0  0  0  0  0  0  0  0  0  0
    1.6012   -0.1106    1.9679 H   0  0  0  0  0  0  0  0  0  0  0  0
    2.0876   -1.2930    0.8006 H   0  0  0  0  0  0  0  0  0  0  0  0
    0.0464    0.9407    0.2210 H   0  0  0  0  0  0  0  0  0  0  0  0
    1.0274    0.0483   -1.8505 H   0  0  0  0  0  0  0  0  0  0  0  0
    1.0784   -2.0799   -2.2765 H   0  0  0  0  0  0  0  0  0  0  0  0
   -1.0674   -0.9378   -2.8575 H   0  0  0  0  0  0  0  0  0  0  0  0
   -1.3545    0.5540   -1.9512 H   0  0  0  0  0  0  0  0  0  0  0  0
   -1.8695   -2.3162   -1.0032 H   0  0  0  0  0  0  0  0  0  0  0  0
   -3.0629   -1.0867   -1.4270 H   0  0  0  0  0  0  0  0  0  0  0  0
   -2.8382   -2.4833    1.3336 H   0  0  0  0  0  0  0  0  0  0  0  0
   -4.0441   -1.4179    0.6152 H   0  0  0  0  0  0  0  0  0  0  0  0
   -3.6151    0.3027    2.3864 H   0  0  0  0  0  0  0  0  0  0  0  0
   -2.5148   -0.8194    3.1926 H   0  0  0  0  0  0  0  0  0  0  0  0
   -4.7469   -0.9359    4.2061 H   0  0  0  0  0  0  0  0  0  0  0  0
   -5.4751   -1.3484    2.6447 H   0  0  0  0  0  0  0  0  0  0  0  0
   -4.3581   -2.4817    3.4312 H   0  0  0  0  0  0  0  0  0  0  0  0
   -0.7245   -0.5089    2.0190 H   0  0  0  0  0  0  0  0  0  0  0  0
   -0.4583   -1.9642    1.0578 H   0  0  0  0  0  0  0  0  0  0  0  0
    4.5571    1.0069   -3.3500 H   0  0  0  0  0  0  0  0  0  0  0  0
    5.4833    2.5347   -3.1667 H   0  0  0  0  0  0  0  0  0  0  0  0
    6.3060    1.0375   -3.6264 H   0  0  0  0  0  0  0  0  0  0  0  0
  1  2  2  0
  2  3  1  0
  3  4  1  0
  2  5  1  0
  5  6  2  0
  6  7  1  0
  7  8  2  0
  8  9  1  0
  7 10  1  0
 10 11  1  0
 11 12  1  0
 12 13  1  0
 12 14  1  0
 14 15  1  0
 15 16  1  0
 16 17  1  0
 17 18  1  0
 18 19  1  0
 16 20  1  0
  1 21  1  0
 21 22  1  0
  8  1  1  0
 20 11  1  0
  4 23  1  0
  4 24  1  0
  4 25  1  0
  5 26  1  0
  6 27  1  0
 10 28  1  0
 10 29  1  0
 11 30  1  0
 12 31  1  0
 13 32  1  0
 14 33  1  0
 14 34  1  0
 15 35  1  0
 15 36  1  0
 17 37  1  0
 17 38  1  0
 18 39  1  0
 18 40  1  0
 19 41  1  0
 19 42  1  0
 19 43  1  0
 20 44  1  0
 20 45  1  0
 22 46  1  0
 22 47  1  0
 22 48  1  0
M  END
>  <mol_id>  (43) 
MCULE-3716360067

>  <drugclip_rank>  (43) 
43

>  <conformer>  (43) 
1

>  <align_rmsd>  (43) 
0.578

$$$$
FCG3559872553
     RDKit          3D

 41 43  0  0  0  0  0  0  0  0999 V2000
   -2.7973   -3.4087   -0.4578 O   0  0  0  0  0  0  0  0  0  0  0  0
   -1.9190   -3.2321   -1.5727 C   0  0  0  0  0  0  0  0  0  0  0  0
   -2.4402   -2.2191   -2.5887 C   0  0  0  0  0  0  0  0  0  0  0  0
   -1.5547   -2.1175   -3.6179 F   0  0  0  0  0  0  0  0  0  0  0  0
   -3.5763   -2.7528   -3.1415 F   0  0  0  0  0  0  0  0  0  0  0  0
   -2.8004   -0.8125   -2.0547 C   0  0  0  0  0  0  0  0  0  0  0  0
   -1.8023    0.0977   -1.4553 N   0  0  0  0  0  0  0  0  0  0  0  0
   -0.5388    0.1616   -2.2115 C   0  0  0  0  0  0  0  0  0  0  0  0
    0.4357    1.2115   -1.6277 C   0  0  0  0  0  0  0  0  0  0  0  0
    0.7182    0.9780   -0.1924 N   0  0  0  0  0  0  0  0  0  0  0  0
   -0.5206    0.8049    0.5998 C   0  0  0  0  0  0  0  0  0  0  0  0
   -1.5335   -0.1836   -0.0316 C   0  0  0  0  0  0  0  0  0  0  0  0
    1.7026   -0.0118    0.0148 C   0  0  0  0  0  0  0  0  0  0  0  0
    1.3084   -1.2403    0.3971 N   0  0  0  0  0  0  0  0  0  0  0  0
    2.2621   -2.1640    0.5514 C   0  0  0  0  0  0  0  0  0  0  0  0
    3.5730   -1.9913    0.3594 N   0  0  0  0  0  0  0  0  0  0  0  0
    3.0665    0.2968   -0.1780 C   0  0  0  0  0  0  0  0  0  0  0  0
    3.9647   -0.7649    0.0068 C   0  0  0  0  0  0  0  0  0  0  0  0
    3.5732    1.5780   -0.5121 C   0  0  0  0  0  0  0  0  0  0  0  0
    4.9354    1.7776   -0.6867 C   0  0  0  0  0  0  0  0  0  0  0  0
    5.3622    3.0277   -1.0156 O   0  0  0  0  0  0  0  0  0  0  0  0
    5.8213    0.7260   -0.5262 C   0  0  0  0  0  0  0  0  0  0  0  0
    5.3237   -0.5329   -0.1772 C   0  0  0  0  0  0  0  0  0  0  0  0
   -3.6341   -3.7634   -0.8123 H   0  0  0  0  0  0  0  0  0  0  0  0
   -1.8011   -4.2083   -2.0557 H   0  0  0  0  0  0  0  0  0  0  0  0
   -0.9311   -2.9481   -1.2010 H   0  0  0  0  0  0  0  0  0  0  0  0
   -3.6559   -0.9050   -1.3726 H   0  0  0  0  0  0  0  0  0  0  0  0
   -3.2113   -0.2676   -2.9158 H   0  0  0  0  0  0  0  0  0  0  0  0
   -0.7498    0.4379   -3.2514 H   0  0  0  0  0  0  0  0  0  0  0  0
   -0.0416   -0.8155   -2.2233 H   0  0  0  0  0  0  0  0  0  0  0  0
    1.3509    1.2306   -2.2309 H   0  0  0  0  0  0  0  0  0  0  0  0
   -0.0132    2.2086   -1.7246 H   0  0  0  0  0  0  0  0  0  0  0  0
   -0.2915    0.5094    1.6317 H   0  0  0  0  0  0  0  0  0  0  0  0
   -1.0005    1.7899    0.6709 H   0  0  0  0  0  0  0  0  0  0  0  0
   -2.4699   -0.1045    0.5342 H   0  0  0  0  0  0  0  0  0  0  0  0
   -1.1739   -1.2051    0.1038 H   0  0  0  0  0  0  0  0  0  0  0  0
    1.9388   -3.1526    0.8588 H   0  0  0  0  0  0  0  0  0  0  0  0
    2.8961    2.4217   -0.6227 H   0  0  0  0  0  0  0  0  0  0  0  0
    6.3319    3.0246   -1.0749 H   0  0  0  0  0  0  0  0  0  0  0  0
    6.8904    0.8576   -0.6572 H   0  0  0  0  0  0  0  0  0  0  0  0
    6.0185   -1.3588   -0.0384 H   0  0  0  0  0  0  0  0  0  0  0  0
  1  2  1  0
  2  3  1  0
  3  4  1  0
  3  5  1  0
  3  6  1  0
  6  7  1  0
  7  8  1  0
  8  9  1  0
  9 10  1  0
 10 11  1  0
 11 12  1  0
 10 13  1  0
 13 14  2  0
 14 15  1  0
 15 16  2  0
 13 17  1  0
 17 18  2  0
 17 19  1  0
 19 20  2  0
 20 21  1  0
 20 22  1  0
 22 23  2  0
 12  7  1  0
 18 16  1  0
 23 18  1  0
  1 24  1  0
  2 25  1  0
  2 26  1  0
  6 27  1  0
  6 28  1  0
  8 29  1  0
  8 30  1  0
  9 31  1  0
  9 32  1  0
 11 33  1  0
 11 34  1  0
 12 35  1  0
 12 36  1  0
 15 37  1  0
 19 38  1  0
 21 39  1  0
 22 40  1  0
 23 41  1  0
M  END
>  <mol_id>  (44) 
FCG3559872553

>  <drugclip_rank>  (44) 
44

>  <conformer>  (44) 
10

>  <align_rmsd>  (44) 
1.351

$$$$
Z1623981649
     RDKit          3D

 47 48  0  0  0  0  0  0  0  0999 V2000
   -6.1717   -1.1664   -0.8033 C   0  0  0  0  0  0  0  0  0  0  0  0
   -5.0863   -1.1647   -1.8720 C   0  0  0  0  0  0  0  0  0  0  0  0
   -3.7237   -1.6838   -1.4017 C   0  0  0  0  0  0  0  0  0  0  0  0
   -3.8587   -3.0322   -0.9423 O   0  0  0  0  0  0  0  0  0  0  0  0
   -3.0885   -0.8324   -0.2781 C   0  0  0  0  0  0  0  0  0  0  0  0
   -1.8102   -1.4211    0.1776 N   0  0  0  0  0  0  0  0  0  0  0  0
   -0.6952   -1.1913   -0.7695 C   0  0  0  0  0  0  0  0  0  0  0  0
    0.3246   -0.1204   -0.3169 C   0  0  0  0  0  0  0  0  0  0  0  0
    0.9601   -0.4316    0.9821 N   0  0  0  0  0  0  0  0  0  0  0  0
    0.0223   -1.1392    1.8782 C   0  0  0  0  0  0  0  0  0  0  0  0
   -1.4666   -0.9287    1.5285 C   0  0  0  0  0  0  0  0  0  0  0  0
    1.5096    0.7754    1.6187 C   0  0  0  0  0  0  0  0  0  0  0  0
    2.6297    1.4171    0.8240 C   0  0  0  0  0  0  0  0  0  0  0  0
    2.5402    2.7600    0.4257 C   0  0  0  0  0  0  0  0  0  0  0  0
    3.5757    3.3510   -0.2965 C   0  0  0  0  0  0  0  0  0  0  0  0
    4.6976    2.5980   -0.6168 C   0  0  0  0  0  0  0  0  0  0  0  0
    5.6994    3.2021   -1.3280 O   0  0  0  0  0  0  0  0  0  0  0  0
    4.8177    1.2581   -0.2327 C   0  0  0  0  0  0  0  0  0  0  0  0
    3.7800    0.6735    0.4931 C   0  0  0  0  0  0  0  0  0  0  0  0
    5.9806    0.6447   -0.6231 O   0  0  0  0  0  0  0  0  0  0  0  0
    6.1145   -0.7312   -0.2843 C   0  0  0  0  0  0  0  0  0  0  0  0
   -7.1282   -0.8655   -1.2434 H   0  0  0  0  0  0  0  0  0  0  0  0
   -6.3024   -2.1609   -0.3662 H   0  0  0  0  0  0  0  0  0  0  0  0
   -5.9442   -0.4603    0.0004 H   0  0  0  0  0  0  0  0  0  0  0  0
   -4.9759   -0.1505   -2.2729 H   0  0  0  0  0  0  0  0  0  0  0  0
   -5.4341   -1.8019   -2.6947 H   0  0  0  0  0  0  0  0  0  0  0  0
   -3.0604   -1.7121   -2.2730 H   0  0  0  0  0  0  0  0  0  0  0  0
   -3.0420   -3.1976   -0.4278 H   0  0  0  0  0  0  0  0  0  0  0  0
   -3.7780   -0.8369    0.5748 H   0  0  0  0  0  0  0  0  0  0  0  0
   -2.9598    0.2092   -0.5965 H   0  0  0  0  0  0  0  0  0  0  0  0
   -1.0558   -0.9282   -1.7702 H   0  0  0  0  0  0  0  0  0  0  0  0
   -0.1661   -2.1459   -0.8868 H   0  0  0  0  0  0  0  0  0  0  0  0
   -0.1968    0.8460   -0.2776 H   0  0  0  0  0  0  0  0  0  0  0  0
    1.1016   -0.0380   -1.0858 H   0  0  0  0  0  0  0  0  0  0  0  0
    0.1896   -0.8742    2.9297 H   0  0  0  0  0  0  0  0  0  0  0  0
    0.2475   -2.2116    1.8088 H   0  0  0  0  0  0  0  0  0  0  0  0
   -1.6999    0.1404    1.6276 H   0  0  0  0  0  0  0  0  0  0  0  0
   -2.0814   -1.4630    2.2623 H   0  0  0  0  0  0  0  0  0  0  0  0
    0.7117    1.5040    1.8142 H   0  0  0  0  0  0  0  0  0  0  0  0
    1.9381    0.5172    2.5966 H   0  0  0  0  0  0  0  0  0  0  0  0
    1.6637    3.3536    0.6741 H   0  0  0  0  0  0  0  0  0  0  0  0
    3.5110    4.3891   -0.6078 H   0  0  0  0  0  0  0  0  0  0  0  0
    6.3771    2.5073   -1.4404 H   0  0  0  0  0  0  0  0  0  0  0  0
    3.8236   -0.3636    0.8121 H   0  0  0  0  0  0  0  0  0  0  0  0
    6.1279   -0.8702    0.8018 H   0  0  0  0  0  0  0  0  0  0  0  0
    7.0755   -1.0788   -0.6757 H   0  0  0  0  0  0  0  0  0  0  0  0
    5.3277   -1.3322   -0.7522 H   0  0  0  0  0  0  0  0  0  0  0  0
  1  2  1  0
  2  3  1  0
  3  4  1  0
  3  5  1  0
  5  6  1  0
  6  7  1  0
  7  8  1  0
  8  9  1  0
  9 10  1  0
 10 11  1  0
  9 12  1  0
 12 13  1  0
 13 14  2  0
 14 15  1  0
 15 16  2  0
 16 17  1  0
 16 18  1  0
 18 19  2  0
 18 20  1  0
 20 21  1  0
 11  6  1  0
 19 13  1  0
  1 22  1  0
  1 23  1  0
  1 24  1  0
  2 25  1  0
  2 26  1  0
  3 27  1  0
  4 28  1  0
  5 29  1  0
  5 30  1  0
  7 31  1  0
  7 32  1  0
  8 33  1  0
  8 34  1  0
 10 35  1  0
 10 36  1  0
 11 37  1  0
 11 38  1  0
 12 39  1  0
 12 40  1  0
 14 41  1  0
 15 42  1  0
 17 43  1  0
 19 44  1  0
 21 45  1  0
 21 46  1  0
 21 47  1  0
M  END
>  <mol_id>  (45) 
Z1623981649

>  <drugclip_rank>  (45) 
45

>  <conformer>  (45) 
18

>  <align_rmsd>  (45) 
0.633

$$$$
8015-2101
     RDKit          3D

 46 47  0  0  0  0  0  0  0  0999 V2000
   -0.9304   -0.3718    1.4769 C   0  0  0  0  0  0  0  0  0  0  0  0
   -1.0277   -1.8463    1.1150 C   0  0  0  0  0  0  0  0  0  0  0  0
   -1.6832   -2.0000   -0.2322 C   0  0  0  0  0  0  0  0  0  0  0  0
   -2.5714   -2.8325   -0.4147 O   0  0  0  0  0  0  0  0  0  0  0  0
   -1.1087   -1.1434   -1.3479 C   0  0  0  0  0  0  0  0  0  0  0  0
   -1.8564   -1.3449   -2.6635 C   0  0  0  0  0  0  0  0  0  0  0  0
   -1.0648    0.3271   -0.8760 C   0  0  0  0  0  0  0  0  0  0  0  0
   -2.4539    0.9883   -0.8255 C   0  0  0  0  0  0  0  0  0  0  0  0
   -0.3067    0.4047    0.3965 N   0  0  0  0  0  0  0  0  0  0  0  0
   -0.0127    1.7936    0.7999 C   0  0  0  0  0  0  0  0  0  0  0  0
    1.2323    1.9331    1.6982 C   0  0  0  0  0  0  0  0  0  0  0  0
    2.5262    1.6095    0.9865 C   0  0  0  0  0  0  0  0  0  0  0  0
    3.2322    2.6101    0.3011 C   0  0  0  0  0  0  0  0  0  0  0  0
    3.0244    0.3037    0.9811 C   0  0  0  0  0  0  0  0  0  0  0  0
    4.2112   -0.0022    0.3108 C   0  0  0  0  0  0  0  0  0  0  0  0
    4.9185    0.9949   -0.3679 C   0  0  0  0  0  0  0  0  0  0  0  0
    6.0909    0.7860   -1.0522 O   0  0  0  0  0  0  0  0  0  0  0  0
    6.6145   -0.5336   -1.0722 C   0  0  0  0  0  0  0  0  0  0  0  0
    4.4242    2.3145   -0.3732 C   0  0  0  0  0  0  0  0  0  0  0  0
    5.1737    3.2354   -1.0642 O   0  0  0  0  0  0  0  0  0  0  0  0
    4.7171    4.5795   -1.0808 C   0  0  0  0  0  0  0  0  0  0  0  0
   -1.9245    0.0231    1.7199 H   0  0  0  0  0  0  0  0  0  0  0  0
   -0.3359   -0.3029    2.3942 H   0  0  0  0  0  0  0  0  0  0  0  0
   -0.0355   -2.3087    1.0666 H   0  0  0  0  0  0  0  0  0  0  0  0
   -1.6173   -2.3792    1.8683 H   0  0  0  0  0  0  0  0  0  0  0  0
   -0.0784   -1.4939   -1.5030 H   0  0  0  0  0  0  0  0  0  0  0  0
   -1.7331   -2.3744   -3.0181 H   0  0  0  0  0  0  0  0  0  0  0  0
   -1.4708   -0.6756   -3.4392 H   0  0  0  0  0  0  0  0  0  0  0  0
   -2.9323   -1.1719   -2.5568 H   0  0  0  0  0  0  0  0  0  0  0  0
   -0.4830    0.8709   -1.6334 H   0  0  0  0  0  0  0  0  0  0  0  0
   -2.3979    2.0187   -0.4608 H   0  0  0  0  0  0  0  0  0  0  0  0
   -3.1524    0.4400   -0.1859 H   0  0  0  0  0  0  0  0  0  0  0  0
   -2.8933    1.0427   -1.8270 H   0  0  0  0  0  0  0  0  0  0  0  0
   -0.8757    2.2282    1.3201 H   0  0  0  0  0  0  0  0  0  0  0  0
    0.1573    2.4115   -0.0919 H   0  0  0  0  0  0  0  0  0  0  0  0
    1.1452    1.3197    2.6024 H   0  0  0  0  0  0  0  0  0  0  0  0
    1.2839    2.9679    2.0619 H   0  0  0  0  0  0  0  0  0  0  0  0
    2.8292    3.6172    0.3064 H   0  0  0  0  0  0  0  0  0  0  0  0
    2.4834   -0.4894    1.4924 H   0  0  0  0  0  0  0  0  0  0  0  0
    4.5535   -1.0308    0.3353 H   0  0  0  0  0  0  0  0  0  0  0  0
    7.5400   -0.5174   -1.6559 H   0  0  0  0  0  0  0  0  0  0  0  0
    5.9238   -1.2258   -1.5650 H   0  0  0  0  0  0  0  0  0  0  0  0
    6.8653   -0.8750   -0.0624 H   0  0  0  0  0  0  0  0  0  0  0  0
    3.7429    4.6597   -1.5740 H   0  0  0  0  0  0  0  0  0  0  0  0
    4.6862    4.9995   -0.0701 H   0  0  0  0  0  0  0  0  0  0  0  0
    5.4325    5.1686   -1.6627 H   0  0  0  0  0  0  0  0  0  0  0  0
  1  2  1  0
  2  3  1  0
  3  4  2  0
  3  5  1  0
  5  6  1  0
  5  7  1  0
  7  8  1  0
  7  9  1  0
  9 10  1  0
 10 11  1  0
 11 12  1  0
 12 13  2  0
 12 14  1  0
 14 15  2  0
 15 16  1  0
 16 17  1  0
 17 18  1  0
 16 19  2  0
 19 20  1  0
 20 21  1  0
  9  1  1  0
 19 13  1  0
  1 22  1  0
  1 23  1  0
  2 24  1  0
  2 25  1  0
  5 26  1  0
  6 27  1  0
  6 28  1  0
  6 29  1  0
  7 30  1  0
  8 31  1  0
  8 32  1  0
  8 33  1  0
 10 34  1  0
 10 35  1  0
 11 36  1  0
 11 37  1  0
 13 38  1  0
 14 39  1  0
 15 40  1  0
 18 41  1  0
 18 42  1  0
 18 43  1  0
 21 44  1  0
 21 45  1  0
 21 46  1  0
M  END
>  <mol_id>  (46) 
8015-2101

>  <drugclip_rank>  (46) 
46

>  <conformer>  (46) 
3

>  <align_rmsd>  (46) 
0.616

$$$$
Z204712526
     RDKit          3D

 41 42  0  0  0  0  0  0  0  0999 V2000
    5.2460    4.7135   -1.0162 C   0  0  0  0  0  0  0  0  0  0  0  0
    5.4342    3.3066   -1.0519 O   0  0  0  0  0  0  0  0  0  0  0  0
    4.4298    2.5144   -0.5524 C   0  0  0  0  0  0  0  0  0  0  0  0
    3.2317    2.9997   -0.0175 C   0  0  0  0  0  0  0  0  0  0  0  0
    4.6569    1.1253   -0.6000 C   0  0  0  0  0  0  0  0  0  0  0  0
    5.8588    0.7295   -1.1337 O   0  0  0  0  0  0  0  0  0  0  0  0
    6.1233   -0.6632   -1.2114 C   0  0  0  0  0  0  0  0  0  0  0  0
    3.6797    0.2480   -0.1150 C   0  0  0  0  0  0  0  0  0  0  0  0
    2.4715    0.7333    0.4112 C   0  0  0  0  0  0  0  0  0  0  0  0
    2.2574    2.1186    0.4754 C   0  0  0  0  0  0  0  0  0  0  0  0
    1.4526   -0.2410    0.9657 C   0  0  0  0  0  0  0  0  0  0  0  0
    0.0781    0.2903    1.0954 N   0  0  0  0  0  0  0  0  0  0  0  0
    0.1426    1.6030    1.7690 C   0  0  0  0  0  0  0  0  0  0  0  0
    0.9569    2.6625    1.0127 C   0  0  0  0  0  0  0  0  0  0  0  0
   -0.6364    0.3683   -0.1937 C   0  0  0  0  0  0  0  0  0  0  0  0
   -1.1715   -0.9805   -0.6608 C   0  0  0  0  0  0  0  0  0  0  0  0
   -2.7354   -1.4193    0.0712 S   0  0  0  0  0  0  0  0  0  0  0  0
   -3.0481   -2.7642   -0.3796 O   0  0  0  0  0  0  0  0  0  0  0  0
   -3.6734   -0.3380   -0.1677 O   0  0  0  0  0  0  0  0  0  0  0  0
   -2.4332   -1.5124    1.8203 C   0  0  0  0  0  0  0  0  0  0  0  0
    6.1373    5.1812   -1.4457 H   0  0  0  0  0  0  0  0  0  0  0  0
    5.1461    5.0731    0.0132 H   0  0  0  0  0  0  0  0  0  0  0  0
    4.3876    5.0129   -1.6263 H   0  0  0  0  0  0  0  0  0  0  0  0
    3.0280    4.0648    0.0268 H   0  0  0  0  0  0  0  0  0  0  0  0
    7.1109   -0.7914   -1.6650 H   0  0  0  0  0  0  0  0  0  0  0  0
    6.1548   -1.1154   -0.2147 H   0  0  0  0  0  0  0  0  0  0  0  0
    5.3949   -1.1689   -1.8538 H   0  0  0  0  0  0  0  0  0  0  0  0
    3.8365   -0.8258   -0.1337 H   0  0  0  0  0  0  0  0  0  0  0  0
    1.7952   -0.5437    1.9641 H   0  0  0  0  0  0  0  0  0  0  0  0
    1.4486   -1.1548    0.3610 H   0  0  0  0  0  0  0  0  0  0  0  0
   -0.8707    1.9805    1.9546 H   0  0  0  0  0  0  0  0  0  0  0  0
    0.5809    1.4560    2.7658 H   0  0  0  0  0  0  0  0  0  0  0  0
    1.1584    3.5015    1.6892 H   0  0  0  0  0  0  0  0  0  0  0  0
    0.3703    3.0469    0.1693 H   0  0  0  0  0  0  0  0  0  0  0  0
    0.0218    0.7718   -0.9729 H   0  0  0  0  0  0  0  0  0  0  0  0
   -1.4748    1.0707   -0.1118 H   0  0  0  0  0  0  0  0  0  0  0  0
   -1.3615   -0.9378   -1.7398 H   0  0  0  0  0  0  0  0  0  0  0  0
   -0.4785   -1.8080   -0.4862 H   0  0  0  0  0  0  0  0  0  0  0  0
   -2.2748   -0.5091    2.2160 H   0  0  0  0  0  0  0  0  0  0  0  0
   -1.5678   -2.1533    1.9972 H   0  0  0  0  0  0  0  0  0  0  0  0
   -3.3176   -1.9500    2.2894 H   0  0  0  0  0  0  0  0  0  0  0  0
  1  2  1  0
  2  3  1  0
  3  4  2  0
  3  5  1  0
  5  6  1  0
  6  7  1  0
  5  8  2  0
  8  9  1  0
  9 10  2  0
  9 11  1  0
 11 12  1  0
 12 13  1  0
 13 14  1  0
 12 15  1  0
 15 16  1  0
 16 17  1  0
 17 18  2  0
 17 19  2  0
 17 20  1  0
 10  4  1  0
 14 10  1  0
  1 21  1  0
  1 22  1  0
  1 23  1  0
  4 24  1  0
  7 25  1  0
  7 26  1  0
  7 27  1  0
  8 28  1  0
 11 29  1  0
 11 30  1  0
 13 31  1  0
 13 32  1  0
 14 33  1  0
 14 34  1  0
 15 35  1  0
 15 36  1  0
 16 37  1  0
 16 38  1  0
 20 39  1  0
 20 40  1  0
 20 41  1  0
M  END
>  <mol_id>  (47) 
Z204712526

>  <drugclip_rank>  (47) 
47

>  <conformer>  (47) 
30

>  <align_rmsd>  (47) 
0.419

$$$$
Z2312594102
     RDKit          3D

 47 49  0  0  0  0  0  0  0  0999 V2000
   -6.2505    0.0068    0.0777 C   0  0  0  0  0  0  0  0  0  0  0  0
   -5.2449   -0.9835   -0.0765 O   0  0  0  0  0  0  0  0  0  0  0  0
   -3.9417   -0.5901    0.0758 C   0  0  0  0  0  0  0  0  0  0  0  0
   -3.5256    0.7003    0.4118 C   0  0  0  0  0  0  0  0  0  0  0  0
   -2.9695   -1.5783   -0.1157 C   0  0  0  0  0  0  0  0  0  0  0  0
   -3.3646   -2.8498   -0.4396 O   0  0  0  0  0  0  0  0  0  0  0  0
   -1.6101   -1.2898    0.0171 C   0  0  0  0  0  0  0  0  0  0  0  0
   -1.1883    0.0091    0.3450 C   0  0  0  0  0  0  0  0  0  0  0  0
   -2.1585    1.0080    0.5426 C   0  0  0  0  0  0  0  0  0  0  0  0
    0.3057    0.3140    0.4543 C   0  0  0  0  0  0  0  0  0  0  0  0
    0.6064    1.5469    1.2231 N   0  0  0  0  0  0  0  0  0  0  0  0
    0.5618    1.3156    2.6657 C   0  0  0  0  0  0  0  0  0  0  0  0
   -0.2545    2.6630    0.8120 C   0  0  0  0  0  0  0  0  0  0  0  0
   -1.7546    2.3960    0.9742 C   0  0  0  0  0  0  0  0  0  0  0  0
    0.9424    0.3531   -0.9662 C   0  0  0  0  0  0  0  0  0  0  0  0
    2.4556    0.3817   -0.9605 C   0  0  0  0  0  0  0  0  0  0  0  0
    3.1918   -0.8051   -0.8239 C   0  0  0  0  0  0  0  0  0  0  0  0
    4.5929   -0.7852   -0.8119 C   0  0  0  0  0  0  0  0  0  0  0  0
    5.2746    0.4242   -0.9346 C   0  0  0  0  0  0  0  0  0  0  0  0
    6.6359    0.5915   -0.9398 O   0  0  0  0  0  0  0  0  0  0  0  0
    7.4210   -0.5869   -0.8009 C   0  0  0  0  0  0  0  0  0  0  0  0
    4.5329    1.6033   -1.0666 C   0  0  0  0  0  0  0  0  0  0  0  0
    5.1735    2.8077   -1.1886 O   0  0  0  0  0  0  0  0  0  0  0  0
    3.1428    1.5946   -1.0783 C   0  0  0  0  0  0  0  0  0  0  0  0
   -6.1352    0.8071   -0.6609 H   0  0  0  0  0  0  0  0  0  0  0  0
   -6.2577    0.4065    1.0971 H   0  0  0  0  0  0  0  0  0  0  0  0
   -7.2197   -0.4700   -0.0984 H   0  0  0  0  0  0  0  0  0  0  0  0
   -4.2469    1.4921    0.5882 H   0  0  0  0  0  0  0  0  0  0  0  0
   -2.5823   -3.4140   -0.5307 H   0  0  0  0  0  0  0  0  0  0  0  0
   -0.8697   -2.0700   -0.1345 H   0  0  0  0  0  0  0  0  0  0  0  0
    0.7690   -0.5303    0.9856 H   0  0  0  0  0  0  0  0  0  0  0  0
    1.3125    0.5712    2.9542 H   0  0  0  0  0  0  0  0  0  0  0  0
    0.8141    2.2330    3.2092 H   0  0  0  0  0  0  0  0  0  0  0  0
   -0.4140    0.9662    3.0188 H   0  0  0  0  0  0  0  0  0  0  0  0
    0.0161    3.5715    1.3649 H   0  0  0  0  0  0  0  0  0  0  0  0
   -0.0477    2.9055   -0.2377 H   0  0  0  0  0  0  0  0  0  0  0  0
   -2.0373    2.5213    2.0268 H   0  0  0  0  0  0  0  0  0  0  0  0
   -2.3103    3.1402    0.3911 H   0  0  0  0  0  0  0  0  0  0  0  0
    0.5588    1.2001   -1.5497 H   0  0  0  0  0  0  0  0  0  0  0  0
    0.6354   -0.5323   -1.5403 H   0  0  0  0  0  0  0  0  0  0  0  0
    2.6773   -1.7585   -0.7265 H   0  0  0  0  0  0  0  0  0  0  0  0
    5.1146   -1.7298   -0.7051 H   0  0  0  0  0  0  0  0  0  0  0  0
    7.2314   -1.0766    0.1600 H   0  0  0  0  0  0  0  0  0  0  0  0
    8.4741   -0.2904   -0.8212 H   0  0  0  0  0  0  0  0  0  0  0  0
    7.2525   -1.2741   -1.6366 H   0  0  0  0  0  0  0  0  0  0  0  0
    6.1241    2.5878   -1.1470 H   0  0  0  0  0  0  0  0  0  0  0  0
    2.6034    2.5332   -1.1697 H   0  0  0  0  0  0  0  0  0  0  0  0
  1  2  1  0
  2  3  1  0
  3  4  2  0
  3  5  1  0
  5  6  1  0
  5  7  2  0
  7  8  1  0
  8  9  2  0
  8 10  1  0
 10 11  1  0
 11 12  1  0
 11 13  1  0
 13 14  1  0
 10 15  1  0
 15 16  1  0
 16 17  2  0
 17 18  1  0
 18 19  2  0
 19 20  1  0
 20 21  1  0
 19 22  1  0
 22 23  1  0
 22 24  2  0
  9  4  1  0
 14  9  1  0
 24 16  1  0
  1 25  1  0
  1 26  1  0
  1 27  1  0
  4 28  1  0
  6 29  1  0
  7 30  1  0
 10 31  1  0
 12 32  1  0
 12 33  1  0
 12 34  1  0
 13 35  1  0
 13 36  1  0
 14 37  1  0
 14 38  1  0
 15 39  1  0
 15 40  1  0
 17 41  1  0
 18 42  1  0
 21 43  1  0
 21 44  1  0
 21 45  1  0
 23 46  1  0
 24 47  1  0
M  END
>  <mol_id>  (48) 
Z2312594102

>  <drugclip_rank>  (48) 
48

>  <conformer>  (48) 
19

>  <align_rmsd>  (48) 
0.909

$$$$
Z1317909945
     RDKit          3D

 45 48  0  0  0  0  0  0  0  0999 V2000
   -5.3860   -3.4002   -0.2086 C   0  0  0  0  0  0  0  0  0  0  0  0
   -6.4403   -2.5324    0.0914 C   0  0  0  0  0  0  0  0  0  0  0  0
   -6.2040   -1.1933    0.3916 C   0  0  0  0  0  0  0  0  0  0  0  0
   -4.9000   -0.6850    0.4029 C   0  0  0  0  0  0  0  0  0  0  0  0
   -3.8169   -1.5407    0.1104 C   0  0  0  0  0  0  0  0  0  0  0  0
   -4.0881   -2.8750   -0.1929 C   0  0  0  0  0  0  0  0  0  0  0  0
   -2.4012   -1.3770    0.0306 C   0  0  0  0  0  0  0  0  0  0  0  0
   -1.8454   -2.5930   -0.3229 C   0  0  0  0  0  0  0  0  0  0  0  0
   -0.4355   -3.0007   -0.5508 C   0  0  0  0  0  0  0  0  0  0  0  0
   -2.8825   -3.4857   -0.4528 N   0  0  0  0  0  0  0  0  0  0  0  0
   -1.6556   -0.1832    0.2623 C   0  0  0  0  0  0  0  0  0  0  0  0
   -1.0576    0.5263   -0.7103 C   0  0  0  0  0  0  0  0  0  0  0  0
   -0.2499    1.7635   -0.4427 C   0  0  0  0  0  0  0  0  0  0  0  0
    0.1597    1.9446    0.9600 N   0  0  0  0  0  0  0  0  0  0  0  0
   -0.9841    1.6657    1.8477 C   0  0  0  0  0  0  0  0  0  0  0  0
   -1.5690    0.2475    1.7052 C   0  0  0  0  0  0  0  0  0  0  0  0
    1.3338    1.1329    1.3209 C   0  0  0  0  0  0  0  0  0  0  0  0
    2.6190    1.6344    0.7038 C   0  0  0  0  0  0  0  0  0  0  0  0
    3.3570    0.8908   -0.1364 C   0  0  0  0  0  0  0  0  0  0  0  0
    4.6018    1.4548   -0.6849 C   0  0  0  0  0  0  0  0  0  0  0  0
    5.3191    0.8310   -1.4602 O   0  0  0  0  0  0  0  0  0  0  0  0
    4.9656    2.8277   -0.2593 C   0  0  0  0  0  0  0  0  0  0  0  0
    6.1199    3.4000   -0.7484 O   0  0  0  0  0  0  0  0  0  0  0  0
    4.1481    3.4527    0.5900 C   0  0  0  0  0  0  0  0  0  0  0  0
    2.9904    2.9152    1.1007 O   0  0  0  0  0  0  0  0  0  0  0  0
   -5.5746   -4.4417   -0.4468 H   0  0  0  0  0  0  0  0  0  0  0  0
   -7.4605   -2.9092    0.0864 H   0  0  0  0  0  0  0  0  0  0  0  0
   -7.0383   -0.5339    0.6171 H   0  0  0  0  0  0  0  0  0  0  0  0
   -4.7255    0.3620    0.6313 H   0  0  0  0  0  0  0  0  0  0  0  0
    0.2105   -2.6223    0.2480 H   0  0  0  0  0  0  0  0  0  0  0  0
   -0.3315   -4.0903   -0.5755 H   0  0  0  0  0  0  0  0  0  0  0  0
   -0.0749   -2.6028   -1.5046 H   0  0  0  0  0  0  0  0  0  0  0  0
   -2.7833   -4.4586   -0.7062 H   0  0  0  0  0  0  0  0  0  0  0  0
   -1.1566    0.2190   -1.7480 H   0  0  0  0  0  0  0  0  0  0  0  0
    0.6198    1.7767   -1.1091 H   0  0  0  0  0  0  0  0  0  0  0  0
   -0.8543    2.6295   -0.7416 H   0  0  0  0  0  0  0  0  0  0  0  0
   -1.7730    2.3999    1.6331 H   0  0  0  0  0  0  0  0  0  0  0  0
   -0.7045    1.8442    2.8936 H   0  0  0  0  0  0  0  0  0  0  0  0
   -0.9387   -0.4650    2.2528 H   0  0  0  0  0  0  0  0  0  0  0  0
   -2.5566    0.2367    2.1812 H   0  0  0  0  0  0  0  0  0  0  0  0
    1.1827    0.0732    1.0790 H   0  0  0  0  0  0  0  0  0  0  0  0
    1.4811    1.1757    2.4087 H   0  0  0  0  0  0  0  0  0  0  0  0
    3.0862   -0.1086   -0.4480 H   0  0  0  0  0  0  0  0  0  0  0  0
    6.5070    2.7202   -1.3396 H   0  0  0  0  0  0  0  0  0  0  0  0
    4.3165    4.4524    0.9640 H   0  0  0  0  0  0  0  0  0  0  0  0
  1  2  2  0
  2  3  1  0
  3  4  2  0
  4  5  1  0
  5  6  2  0
  5  7  1  0
  7  8  2  0
  8  9  1  0
  8 10  1  0
  7 11  1  0
 11 12  2  0
 12 13  1  0
 13 14  1  0
 14 15  1  0
 15 16  1  0
 14 17  1  0
 17 18  1  0
 18 19  2  0
 19 20  1  0
 20 21  2  0
 20 22  1  0
 22 23  1  0
 22 24  2  0
 24 25  1  0
  6  1  1  0
 10  6  1  0
 16 11  1  0
 25 18  1  0
  1 26  1  0
  2 27  1  0
  3 28  1  0
  4 29  1  0
  9 30  1  0
  9 31  1  0
  9 32  1  0
 10 33  1  0
 12 34  1  0
 13 35  1  0
 13 36  1  0
 15 37  1  0
 15 38  1  0
 16 39  1  0
 16 40  1  0
 17 41  1  0
 17 42  1  0
 19 43  1  0
 23 44  1  0
 24 45  1  0
M  END
>  <mol_id>  (49) 
Z1317909945

>  <drugclip_rank>  (49) 
49

>  <conformer>  (49) 
29

>  <align_rmsd>  (49) 
1.044

$$$$
OSSK_860993
     RDKit          3D

 45 47  0  0  0  0  0  0  0  0999 V2000
    4.8048    4.7966    0.9243 C   0  0  0  0  0  0  0  0  0  0  0  0
    4.3297    3.3980    0.6477 C   0  0  0  0  0  0  0  0  0  0  0  0
    4.9157    2.6159   -0.3482 C   0  0  0  0  0  0  0  0  0  0  0  0
    5.9240    3.1452   -1.1021 O   0  0  0  0  0  0  0  0  0  0  0  0
    4.4908    1.3094   -0.5754 C   0  0  0  0  0  0  0  0  0  0  0  0
    3.4686    0.7594    0.2061 C   0  0  0  0  0  0  0  0  0  0  0  0
    2.8587    1.5009    1.2262 C   0  0  0  0  0  0  0  0  0  0  0  0
    3.3193    2.8099    1.4312 C   0  0  0  0  0  0  0  0  0  0  0  0
    1.7813    0.9774    2.0888 C   0  0  0  0  0  0  0  0  0  0  0  0
    1.3495    1.7563    3.0941 C   0  0  0  0  0  0  0  0  0  0  0  0
    1.8244    3.1221    3.3367 C   0  0  0  0  0  0  0  0  0  0  0  0
    2.7837    3.6050    2.4707 O   0  0  0  0  0  0  0  0  0  0  0  0
    1.3705    3.7876    4.2599 O   0  0  0  0  0  0  0  0  0  0  0  0
    1.2269   -0.4232    1.9274 C   0  0  0  0  0  0  0  0  0  0  0  0
    0.0223   -0.5814    1.1161 N   0  0  0  0  0  0  0  0  0  0  0  0
    0.1649   -0.2675   -0.3109 C   0  0  0  0  0  0  0  0  0  0  0  0
   -1.1797   -0.1803   -1.0868 C   0  0  0  0  0  0  0  0  0  0  0  0
   -2.2585   -0.9523   -0.4516 N   0  0  0  0  0  0  0  0  0  0  0  0
   -2.4736   -0.4714    0.9325 C   0  0  0  0  0  0  0  0  0  0  0  0
   -1.1932    0.0122    1.6714 C   0  0  0  0  0  0  0  0  0  0  0  0
   -3.4937   -0.9165   -1.2585 C   0  0  0  0  0  0  0  0  0  0  0  0
   -4.5256   -1.9412   -0.7636 C   0  0  0  0  0  0  0  0  0  0  0  0
   -3.9146   -3.2255   -0.6520 O   0  0  0  0  0  0  0  0  0  0  0  0
    5.2758    5.2483    0.0455 H   0  0  0  0  0  0  0  0  0  0  0  0
    3.9683    5.4500    1.1936 H   0  0  0  0  0  0  0  0  0  0  0  0
    5.5300    4.7886    1.7439 H   0  0  0  0  0  0  0  0  0  0  0  0
    6.2378    2.4770   -1.7328 H   0  0  0  0  0  0  0  0  0  0  0  0
    4.9435    0.7002   -1.3527 H   0  0  0  0  0  0  0  0  0  0  0  0
    3.1714   -0.2629   -0.0093 H   0  0  0  0  0  0  0  0  0  0  0  0
    0.5885    1.4194    3.7894 H   0  0  0  0  0  0  0  0  0  0  0  0
    1.0096   -0.8270    2.9274 H   0  0  0  0  0  0  0  0  0  0  0  0
    1.9994   -1.1090    1.5612 H   0  0  0  0  0  0  0  0  0  0  0  0
    0.6750    0.6892   -0.4638 H   0  0  0  0  0  0  0  0  0  0  0  0
    0.7814   -1.0499   -0.7693 H   0  0  0  0  0  0  0  0  0  0  0  0
   -1.0045   -0.5405   -2.1079 H   0  0  0  0  0  0  0  0  0  0  0  0
   -1.4781    0.8743   -1.1629 H   0  0  0  0  0  0  0  0  0  0  0  0
   -2.9055   -1.2981    1.5092 H   0  0  0  0  0  0  0  0  0  0  0  0
   -3.1977    0.3534    0.9527 H   0  0  0  0  0  0  0  0  0  0  0  0
   -1.2994   -0.2428    2.7328 H   0  0  0  0  0  0  0  0  0  0  0  0
   -1.1415    1.1064    1.6022 H   0  0  0  0  0  0  0  0  0  0  0  0
   -3.2376   -1.1936   -2.2891 H   0  0  0  0  0  0  0  0  0  0  0  0
   -3.9342    0.0871   -1.2868 H   0  0  0  0  0  0  0  0  0  0  0  0
   -5.3592   -2.0172   -1.4682 H   0  0  0  0  0  0  0  0  0  0  0  0
   -4.9300   -1.6657    0.2152 H   0  0  0  0  0  0  0  0  0  0  0  0
   -2.9947   -3.0380   -0.3703 H   0  0  0  0  0  0  0  0  0  0  0  0
  1  2  1  0
  2  3  2  0
  3  4  1  0
  3  5  1  0
  5  6  2  0
  6  7  1  0
  7  8  2  0
  7  9  1  0
  9 10  2  0
 10 11  1  0
 11 12  1  0
 11 13  2  0
  9 14  1  0
 14 15  1  0
 15 16  1  0
 16 17  1  0
 17 18  1  0
 18 19  1  0
 19 20  1  0
 18 21  1  0
 21 22  1  0
 22 23  1  0
  8  2  1  0
 12  8  1  0
 20 15  1  0
  1 24  1  0
  1 25  1  0
  1 26  1  0
  4 27  1  0
  5 28  1  0
  6 29  1  0
 10 30  1  0
 14 31  1  0
 14 32  1  0
 16 33  1  0
 16 34  1  0
 17 35  1  0
 17 36  1  0
 19 37  1  0
 19 38  1  0
 20 39  1  0
 20 40  1  0
 21 41  1  0
 21 42  1  0
 22 43  1  0
 22 44  1  0
 23 45  1  0
M  END
>  <mol_id>  (50) 
OSSK_860993

>  <drugclip_rank>  (50) 
50

>  <conformer>  (50) 
21

>  <align_rmsd>  (50) 
0.698

$$$$
