Z2312594102
     RDKit          3D

 24 26  0  0  0  0  0  0  0  0999 V2000
   -6.2505    0.0068    0.0777 C   0  0  0  0  0  0  0  0  0  0  0  0
   -5.2449   -0.9835   -0.0765 O   0  0  0  0  0  0  0  0  0  0  0  0
   -3.9417   -0.5901    0.0758 C   0  0  0  0  0  0  0  0  0  0  0  0
   -3.5256    0.7003    0.4118 C   0  0  0  0  0  0  0  0  0  0  0  0
   -2.9695   -1.5783   -0.1157 C   0  0  0  0  0  0  0  0  0  0  0  0
   -3.3646   -2.8498   -0.4396 O   0  0  0  0  0  0  0  0  0  0  0  0
   -1.6101   -1.2898    0.0171 C   0  0  0  0  0  0  0  0  0  0  0  0
   -1.1883    0.0091    0.3450 C   0  0  0  0  0  0  0  0  0  0  0  0
   -2.1585    1.0080    0.5426 C   0  0  0  0  0  0  0  0  0  0  0  0
    0.3057    0.3140    0.4543 C   0  0  2  0  0  0  0  0  0  0  0  0
    0.6064    1.5469    1.2231 N   0  0  0  0  0  0  0  0  0  0  0  0
    0.5618    1.3156    2.6657 C   0  0  0  0  0  0  0  0  0  0  0  0
   -0.2545    2.6630    0.8120 C   0  0  0  0  0  0  0  0  0  0  0  0
   -1.7546    2.3960    0.9742 C   0  0  0  0  0  0  0  0  0  0  0  0
    0.9424    0.3531   -0.9662 C   0  0  0  0  0  0  0  0  0  0  0  0
    2.4556    0.3817   -0.9605 C   0  0  0  0  0  0  0  0  0  0  0  0
    3.1918   -0.8051   -0.8239 C   0  0  0  0  0  0  0  0  0  0  0  0
    4.5929   -0.7852   -0.8119 C   0  0  0  0  0  0  0  0  0  0  0  0
    5.2746    0.4242   -0.9346 C   0  0  0  0  0  0  0  0  0  0  0  0
    6.6359    0.5915   -0.9398 O   0  0  0  0  0  0  0  0  0  0  0  0
    7.4210   -0.5869   -0.8009 C   0  0  0  0  0  0  0  0  0  0  0  0
    4.5329    1.6033   -1.0666 C   0  0  0  0  0  0  0  0  0  0  0  0
    5.1735    2.8077   -1.1886 O   0  0  0  0  0  0  0  0  0  0  0  0
    3.1428    1.5946   -1.0783 C   0  0  0  0  0  0  0  0  0  0  0  0
  1  2  1  0
  2  3  1  0
  3  4  2  0
  3  5  1  0
  5  6  1  0
  5  7  2  0
  7  8  1  0
  8  9  2  0
  8 10  1  0
 10 11  1  0
 11 12  1  0
 11 13  1  0
 13 14  1  0
 10 15  1  6
 15 16  1  0
 16 17  2  0
 17 18  1  0
 18 19  2  0
 19 20  1  0
 20 21  1  0
 19 22  1  0
 22 23  1  0
 22 24  2  0
  9  4  1  0
 14  9  1  0
 24 16  1  0
M  END
>  <mol_id>  (1) 
Z2312594102

>  <drugclip_rank>  (1) 
48

>  <conformer>  (1) 
19

>  <align_rmsd>  (1) 
0.909

$$$$
