@<TRIPOS>MOLECULE
5IKR_ID8_A601
 32 33 0 0 0
SMALL
GASTEIGER

@<TRIPOS>ATOM
      1 O          28.7050    5.2570   33.4340 O.co2   1  UNL1       -0.2405
      2 C          27.6740    4.7810   33.1160 C.2     1  UNL1        0.3883
      3 O          27.6990    4.2960   32.0150 O.co2   1  UNL1       -0.2405
      4 C          26.5400    4.7340   34.0980 C.ar    1  UNL1        0.0842
      5 C          26.8340    5.1260   35.3730 C.ar    1  UNL1       -0.0458
      6 C          25.9070    5.1250   36.3540 C.ar    1  UNL1       -0.0609
      7 C          24.6450    4.7370   36.0690 C.ar    1  UNL1       -0.0600
      8 C          24.3360    4.3550   34.8160 C.ar    1  UNL1       -0.0397
      9 C          25.2550    4.3210   33.8280 C.ar    1  UNL1        0.0456
     10 N          24.9320    3.8320   32.6370 N.pl3   1  UNL1       -0.3136
     11 C          23.9570    3.0170   32.2510 C.ar    1  UNL1        0.0345
     12 C          23.4600    3.1430   30.9820 C.ar    1  UNL1       -0.0264
     13 C          24.0540    4.0760   30.0110 C.3     1  UNL1       -0.0377
     14 C          23.3530    2.1450   33.1170 C.ar    1  UNL1       -0.0403
     15 C          22.2740    1.4160   32.7370 C.ar    1  UNL1       -0.0597
     16 C          21.7930    1.5530   31.4830 C.ar    1  UNL1       -0.0585
     17 C          22.3700    2.4080   30.6140 C.ar    1  UNL1       -0.0458
     18 C          21.7850    2.5170   29.2610 C.3     1  UNL1       -0.0394
     19 H          27.8330    5.4360   35.6050 H       1  UNL1        0.0626
     20 H          26.1650    5.4170   37.3570 H       1  UNL1        0.0618
     21 H          23.8970    4.7100   36.8430 H       1  UNL1        0.0618
     22 H          23.3260    4.0460   34.6330 H       1  UNL1        0.0636
     23 H          25.4420    4.1270   31.9980 H       1  UNL1        0.1522
     24 H          23.7370    2.0410   34.1160 H       1  UNL1        0.0636
     25 H          24.4510    4.8960   30.5340 H       1  UNL1        0.0278
     26 H          23.3090    4.4150   29.3530 H       1  UNL1        0.0278
     27 H          24.8180    3.5950   29.4700 H       1  UNL1        0.0278
     28 H          21.8010    0.7490   33.4340 H       1  UNL1        0.0618
     29 H          20.9300    0.9960   31.1800 H       1  UNL1        0.0620
     30 H          21.4190    1.5750   28.9690 H       1  UNL1        0.0278
     31 H          20.9980    3.2150   29.2710 H       1  UNL1        0.0278
     32 H          22.5260    2.8290   28.5820 H       1  UNL1        0.0278
@<TRIPOS>BOND
     1     2     1   ar
     2     3     2   ar
     3     4     2    1
     4     5     4   ar
     5     6     5   ar
     6     7     6   ar
     7     8     7   ar
     8     9     8   ar
     9     9     4   ar
    10    10     9    1
    11    11    10    1
    12    12    11   ar
    13    13    12    1
    14    14    11   ar
    15    15    14   ar
    16    16    15   ar
    17    17    16   ar
    18    17    12   ar
    19    18    17    1
    20    19     5    1
    21    20     6    1
    22    21     7    1
    23    22     8    1
    24    23    10    1
    25    24    14    1
    26    13    25    1
    27    26    13    1
    28    27    13    1
    29    28    15    1
    30    29    16    1
    31    18    30    1
    32    31    18    1
    33    32    18    1
