@<TRIPOS>MOLECULE
5KIR_RCX_A601
 22 24 0 0 0
SMALL
GASTEIGER

@<TRIPOS>ATOM
      1 C          23.7510    2.8090   32.5220 C.2     1  UNL1        0.0752
      2 C          22.9060    1.6390   32.5210 C.2     1  UNL1        0.0275
      3 C          22.3870    1.5480   31.2190 C.3     1  UNL1        0.2356
      4 C          23.6670    3.3120   31.2100 C.2     1  UNL1        0.3413
      5 O          22.8610    2.5440   30.4890 O.3     1  UNL1       -0.4404
      6 O          24.3340    4.4450   30.7270 O.2     1  UNL1       -0.2449
      7 C          24.5910    3.4130   33.6830 C.ar    1  UNL1        0.0060
      8 C          24.0350    3.6090   34.9450 C.ar    1  UNL1        0.0002
      9 C          24.8100    4.1650   35.9800 C.ar    1  UNL1        0.0000
     10 C          26.1350    4.5300   35.7480 C.ar    1  UNL1        0.0000
     11 C          26.6900    4.3390   34.4850 C.ar    1  UNL1        0.0000
     12 C          25.9170    3.7820   33.4540 C.ar    1  UNL1        0.0002
     13 C          22.5820    0.6810   33.6410 C.ar    1  UNL1       -0.0002
     14 C          23.5460    0.2220   34.5340 C.ar    1  UNL1        0.0011
     15 C          23.1790   -0.6700   35.5370 C.ar    1  UNL1        0.0183
     16 C          21.8650   -1.0970   35.6410 C.ar    1  UNL1        0.1057
     17 C          20.9120   -0.6380   34.7410 C.ar    1  UNL1        0.0183
     18 C          21.2760    0.2440   33.7400 C.ar    1  UNL1        0.0011
     19 S          21.3540   -2.2360   36.9050 S.O2    1  UNL1        0.0104
     20 O          21.5780   -3.6540   36.4380 O.2     1  UNL1       -0.1686
     21 O          19.8840   -2.0120   37.2100 O.2     1  UNL1       -0.1686
     22 C          22.3130   -1.9920   38.3850 C.3     1  UNL1        0.1816
@<TRIPOS>BOND
     1     2     1    2
     2     3     2    1
     3     4     1    1
     4     5     4    1
     5     5     3    1
     6     6     4    2
     7     7     1    1
     8     8     7   ar
     9     9     8   ar
    10    10     9   ar
    11    11    10   ar
    12    12    11   ar
    13    12     7   ar
    14    13     2    1
    15    14    13   ar
    16    15    14   ar
    17    16    15   ar
    18    17    16   ar
    19    18    17   ar
    20    18    13   ar
    21    19    16    1
    22    20    19    2
    23    21    19    2
    24    19    22    1
