@<TRIPOS>MOLECULE
8F0R_X7W_A1606
 38 41 0 0 0
SMALL
GASTEIGER

@<TRIPOS>ATOM
      1 C          89.8490  134.9000  138.9060 C.ar    1  UNL1        0.0739
      2 C          89.7640  136.1070  136.4460 C.ar    1  UNL1        0.1603
      3 C          88.7220  136.3090  137.3480 C.ar    1  UNL1        0.0480
      4 C          90.8310  135.3130  136.7910 C.ar    1  UNL1        0.1553
      5 C          90.8710  134.7070  138.0120 C.ar    1  UNL1        0.0352
      6 C          87.0260  138.8760  140.3490 C.3     1  UNL1        0.0897
      7 C          85.4420  138.5180  142.0610 C.3     1  UNL1        0.0897
      8 C          85.5450  136.8690  140.3080 C.3     1  UNL1        0.0778
      9 C          84.2380  137.3900  139.6950 C.3     1  UNL1        0.0221
     10 C          83.4580  136.1620  139.2170 C.3     1  UNL1        0.0238
     11 C          84.2130  135.4540  138.1070 C.3     1  UNL1        0.0062
     12 C          85.6480  135.1180  138.4830 C.3     1  UNL1        0.0233
     13 C          86.3620  136.3040  139.1290 C.3     1  UNL1        0.1070
     14 C          88.7480  135.6990  138.6140 C.ar    1  UNL1        0.0781
     15 C          91.1970  133.1300  133.8990 C.ar    1  UNL1        0.1749
     16 C          90.7350  131.4880  132.3940 C.ar    1  UNL1        0.2002
     17 C          91.0550  130.9040  134.6020 C.ar    1  UNL1        0.1037
     18 C          91.2640  132.2420  134.9210 C.ar    1  UNL1        0.0583
     19 C          82.0330  136.5510  138.7630 C.ar    1  UNL1       -0.0225
     20 C          81.7860  137.0870  137.5090 C.ar    1  UNL1       -0.0004
     21 C          80.4920  137.4220  137.1400 C.ar    1  UNL1        0.0711
     22 C          79.4450  137.2170  138.0210 C.ar    1  UNL1        0.0038
     23 C          79.6900  136.6800  139.2710 C.ar    1  UNL1       -0.0004
     24 C          80.9810  136.3470  139.6400 C.ar    1  UNL1       -0.0043
     25 C          80.2100  138.0120  135.7610 C.3     1  UNL1        0.4186
     26 F          89.7260  136.7050  135.2210 F       1  UNL1       -0.2027
     27 F          81.3840  138.3310  135.1450 F       1  UNL1       -0.1659
     28 F          79.5400  137.0930  135.0070 F       1  UNL1       -0.1659
     29 F          79.4470  139.1360  135.8920 F       1  UNL1       -0.1659
     30 N          86.2990  137.8510  141.0930 N.3     1  UNL1       -0.2700
     31 N          87.6750  135.8920  139.5740 N.pl3   1  UNL1       -0.2371
     32 N          91.3950  134.5430  134.1560 N.pl3   1  UNL1       -0.0770
     33 N          90.9330  132.7460  132.6950 N.ar    1  UNL1       -0.2057
     34 N          90.7860  130.5290  133.3380 N.ar    1  UNL1       -0.2223
     35 O          93.2420  133.9400  136.1220 O.2     1  UNL1       -0.1482
     36 O          92.9430  136.4920  135.3100 O.2     1  UNL1       -0.1482
     37 S          92.1620  135.0640  135.5870 S.O2    1  UNL1        0.0964
     38 CL         89.9390  134.0990  140.4990 Cl      1  UNL1       -0.0809
@<TRIPOS>BOND
     1     3     2   ar
     2     4     2   ar
     3     5     4   ar
     4     5     1   ar
     5     9     8    1
     6    10     9    1
     7    11    10    1
     8    12    11    1
     9    13    12    1
    10    13     8    1
    11    14     1   ar
    12    14     3   ar
    13    18    17   ar
    14    18    15   ar
    15    10    19    1
    16    20    19   ar
    17    21    20   ar
    18    22    21   ar
    19    23    22   ar
    20    24    23   ar
    21    24    19   ar
    22    25    21    1
    23    26     2    1
    24    25    27    1
    25    28    25    1
    26    29    25    1
    27     8    30    1
    28    30     6    1
    29    30     7    1
    30    13    31    1
    31    31    14    1
    32    32    15    1
    33    33    16   ar
    34    33    15   ar
    35    34    17   ar
    36    34    16   ar
    37    37    32    1
    38    37     4    1
    39    37    35    2
    40    37    36    2
    41    38     1    1
