@<TRIPOS>MOLECULE
8F0S_X80_A1605
 38 41 0 0 0
SMALL
GASTEIGER

@<TRIPOS>ATOM
      1 C          90.1640  135.5500  139.3030 C.ar    1  UNL1        0.0176
      2 C          89.8000  136.1610  136.6300 C.ar    1  UNL1        0.1602
      3 C          88.7760  136.4090  137.5490 C.ar    1  UNL1        0.0471
      4 C          91.0160  135.6660  137.0610 C.ar    1  UNL1        0.1545
      5 C          91.1920  135.3170  138.3960 C.ar    1  UNL1        0.0239
      6 C          83.2280  137.8570  139.3160 C.3     1  UNL1        0.0897
      7 C          83.9830  135.7560  138.2790 C.3     1  UNL1        0.0897
      8 C          85.6300  137.0980  139.6840 C.3     1  UNL1        0.0774
      9 C          85.7780  137.9600  140.9560 C.3     1  UNL1        0.0177
     10 C          85.4730  137.1850  142.2320 C.3     1  UNL1        0.0015
     11 C          86.3270  135.9280  142.3560 C.3     1  UNL1        0.0019
     12 C          86.2920  135.0670  141.0940 C.3     1  UNL1        0.0229
     13 C          86.5830  135.8700  139.8110 C.3     1  UNL1        0.1070
     14 C          88.9410  136.0940  138.8950 C.ar    1  UNL1        0.0676
     15 C          91.1630  133.2770  134.4970 C.2     1  UNL1        0.2879
     16 C          91.0520  131.8000  134.4740 C.ar    1  UNL1        0.0851
     17 C          91.0350  131.1150  135.6910 C.ar    1  UNL1        0.0213
     18 C          90.9070  129.7340  135.7150 C.ar    1  UNL1        0.0918
     19 C          90.7800  129.0080  134.5310 C.ar    1  UNL1        0.1512
     20 C          91.4090  126.7680  133.8860 C.3     1  UNL1        0.2053
     21 C          90.4900  125.8240  133.1250 C.3     1  UNL1        0.0438
     22 C          91.2650  124.8290  132.2660 C.3     1  UNL1        0.0037
     23 C          90.3800  123.5890  132.1540 C.3     1  UNL1        0.0001
     24 C          89.1980  123.8240  133.0880 C.3     1  UNL1        0.0001
     25 C          89.6560  124.9240  134.0300 C.3     1  UNL1        0.0037
     26 C          90.7510  129.6900  133.3100 C.ar    1  UNL1        0.0675
     27 C          90.8900  131.0810  133.2890 C.ar    1  UNL1        0.1476
     28 F          89.5950  136.5110  135.3550 F       1  UNL1       -0.2027
     29 F          90.8800  131.7010  132.1010 F       1  UNL1       -0.2039
     30 N          84.1580  136.6820  139.4540 N.3     1  UNL1       -0.2700
     31 N          87.9880  136.2900  139.8640 N.pl3   1  UNL1       -0.2379
     32 N          91.9820  133.7560  135.5190 N.am    1  UNL1       -0.0547
     33 O          93.5550  135.2390  136.7630 O.2     1  UNL1       -0.1481
     34 O          92.2780  136.2010  134.8360 O.2     1  UNL1       -0.1481
     35 O          90.6040  133.9810  133.6740 O.2     1  UNL1       -0.2666
     36 O          90.6160  127.6570  134.6720 O.3     1  UNL1       -0.4745
     37 S          92.3440  135.3110  135.9750 S.O2    1  UNL1        0.0978
     38 CL         90.9230  128.9440  137.2490 Cl      1  UNL1       -0.0791
@<TRIPOS>BOND
     1     3     2   ar
     2     4     2   ar
     3     5     4   ar
     4     5     1   ar
     5     9     8    1
     6    10     9    1
     7    11    10    1
     8    12    11    1
     9    13    12    1
    10    13     8    1
    11    14     1   ar
    12    14     3   ar
    13    16    15    1
    14    17    16   ar
    15    18    17   ar
    16    19    18   ar
    17    21    20    1
    18    22    21    1
    19    23    22    1
    20    24    23    1
    21    25    24    1
    22    25    21    1
    23    26    19   ar
    24    27    26   ar
    25    27    16   ar
    26    28     2    1
    27    29    27    1
    28    30     7    1
    29     8    30    1
    30    30     6    1
    31    13    31    1
    32    31    14    1
    33    32    15   am
    34    35    15    2
    35    36    20    1
    36    36    19    1
    37    37    34    2
    38    37    32    1
    39    37     4    1
    40    37    33    2
    41    38    18    1
