@<TRIPOS>MOLECULE
7D9P_H0R_A601
 30 33 0 0 0
SMALL
GASTEIGER

@<TRIPOS>ATOM
      1 C          87.3090   87.3180   -4.1870 C.2     1  UNL1        0.1728
      2 C          90.6210   90.6580   -0.0470 C.3     1  UNL1        0.2526
      3 C          88.6780   90.0780   -1.0940 C.ar    1  UNL1        0.1721
      4 C          89.4160   88.9750   -1.5680 C.ar    1  UNL1        0.0359
      5 C          88.8750   88.1470   -2.5830 C.ar    1  UNL1       -0.0158
      6 C          87.6280   88.4040   -3.0980 C.ar    1  UNL1        0.0340
      7 C          86.8640   89.5460   -2.5980 C.ar    1  UNL1        0.0426
      8 C          87.4000   90.3600   -1.6170 C.ar    1  UNL1        0.1725
      9 C          85.4910   91.7480   -1.8660 C.3     1  UNL1        0.2526
     10 C          88.5210   86.4230   -4.3550 C.3     1  UNL1        0.0689
     11 C          88.1890   84.8600   -4.2900 C.3     1  UNL1        0.0407
     12 C          88.6930   84.0830   -5.5640 C.3     1  UNL1        0.1369
     13 C          87.7470   83.0170   -5.3970 C.3     1  UNL1        0.0500
     14 C          88.4370   81.6960   -5.7530 C.3     1  UNL1        0.0751
     15 C          90.5090   80.7380   -6.0890 C.3     1  UNL1        0.1014
     16 C          91.2100   80.5970   -7.5080 C.ar    1  UNL1        0.0213
     17 C          92.4290   81.2640   -7.7240 C.ar    1  UNL1       -0.0007
     18 C          93.0750   81.1590   -8.9950 C.ar    1  UNL1       -0.0001
     19 C          92.5260   80.4100  -10.0320 C.ar    1  UNL1        0.0023
     20 C          91.3190   79.7380   -9.8370 C.ar    1  UNL1        0.0294
     21 C          90.6590   79.8320   -8.5620 C.ar    1  UNL1        0.1374
     22 C          90.5330   82.5700   -4.8660 C.3     1  UNL1        0.0751
     23 C          90.0490   84.0090   -4.9870 C.3     1  UNL1        0.0500
     24 C          89.4750   86.8660   -3.2830 C.3     1  UNL1        0.0343
     25 F          88.2740   85.1750   -6.3370 F       1  UNL1       -0.2399
     26 F          89.4930   79.1690   -8.4200 F       1  UNL1       -0.2045
     27 N          89.9070   81.8030   -5.9150 N.3     1  UNL1       -0.2687
     28 O          89.2460   90.8780   -0.1070 O.3     1  UNL1       -0.4684
     29 O          86.7030   91.4510   -1.1320 O.3     1  UNL1       -0.4684
     30 O          86.2890   87.2460   -4.7860 O.2     1  UNL1       -0.2913
@<TRIPOS>BOND
     1     4     3   ar
     2     5     4   ar
     3     6     5   ar
     4     6     1    1
     5     7     6   ar
     6     8     7   ar
     7     8     3   ar
     8    10     1    1
     9    10    11    1
    10    12    11    1
    11    13    12    1
    12    14    13    1
    13    16    15    1
    14    17    16   ar
    15    18    17   ar
    16    19    18   ar
    17    20    19   ar
    18    21    20   ar
    19    21    16   ar
    20    23    12    1
    21    23    22    1
    22    24    10    1
    23    24     5    1
    24    12    25    1
    25    26    21    1
    26    27    15    1
    27    27    14    1
    28    27    22    1
    29    28     3    1
    30    28     2    1
    31    29     9    1
    32    29     8    1
    33    30     1    2
