@<TRIPOS>MOLECULE
7D9Q_H1R_A601
 30 33 0 0 0
SMALL
GASTEIGER

@<TRIPOS>ATOM
      1 C          90.4780   90.2880   -0.1560 C.3     1  UNL1        0.2526
      2 C          88.5210   89.8500   -1.2800 C.ar    1  UNL1        0.1721
      3 C          89.2640   88.7930   -1.8080 C.ar    1  UNL1        0.0359
      4 C          88.7090   87.9860   -2.8080 C.ar    1  UNL1       -0.0158
      5 C          87.4020   88.2510   -3.2870 C.ar    1  UNL1        0.0340
      6 C          86.6420   89.3210   -2.7550 C.ar    1  UNL1        0.0426
      7 C          87.1880   90.1260   -1.7520 C.ar    1  UNL1        0.1725
      8 C          85.9380   92.1620   -2.1490 C.3     1  UNL1        0.2526
      9 C          87.0900   87.2330   -4.3780 C.2     1  UNL1        0.1728
     10 C          88.2670   86.3100   -4.5820 C.3     1  UNL1        0.0689
     11 C          87.8190   84.8210   -4.3150 C.3     1  UNL1        0.0407
     12 C          88.5250   83.8410   -5.3020 C.3     1  UNL1        0.1369
     13 C          89.9540   83.7690   -4.9920 C.3     1  UNL1        0.0500
     14 C          90.4850   82.3480   -4.7980 C.3     1  UNL1        0.0751
     15 C          90.6560   80.4950   -6.0530 C.3     1  UNL1        0.0992
     16 C          90.9470   80.2130   -7.5480 C.ar    1  UNL1       -0.0039
     17 C          90.1050   79.3930   -8.2980 C.ar    1  UNL1       -0.0028
     18 C          90.3410   79.1530   -9.6570 C.ar    1  UNL1        0.0020
     19 C          91.4260   79.7440  -10.2750 C.ar    1  UNL1        0.0296
     20 C          92.2600   80.5680   -9.5240 C.ar    1  UNL1        0.1399
     21 C          92.0420   80.8190   -8.1740 C.ar    1  UNL1        0.0267
     22 C          88.5600   81.4030   -5.9550 C.3     1  UNL1        0.0751
     23 C          87.7860   82.5640   -5.3160 C.3     1  UNL1        0.0500
     24 C          89.3280   86.7540   -3.5690 C.3     1  UNL1        0.0343
     25 F          88.3450   84.4170   -6.6120 F       1  UNL1       -0.2399
     26 F          93.3190   81.1450  -10.1480 F       1  UNL1       -0.2042
     27 N          90.0120   81.5370   -5.9130 N.3     1  UNL1       -0.2688
     28 O          89.1180   90.6130   -0.2870 O.3     1  UNL1       -0.4684
     29 O          86.4230   91.2060   -1.2020 O.3     1  UNL1       -0.4684
     30 O          86.0780   87.2140   -4.9850 O.2     1  UNL1       -0.2913
@<TRIPOS>BOND
     1     3     2   ar
     2     4     3   ar
     3     5     4   ar
     4     6     5   ar
     5     7     6   ar
     6     7     2   ar
     7     9     5    1
     8    10     9    1
     9    10    11    1
    10    12    11    1
    11    13    12    1
    12    14    13    1
    13    16    15    1
    14    17    16   ar
    15    18    17   ar
    16    19    18   ar
    17    20    19   ar
    18    21    20   ar
    19    21    16   ar
    20    23    22    1
    21    23    12    1
    22    24    10    1
    23    24     4    1
    24    12    25    1
    25    26    20    1
    26    27    22    1
    27    27    15    1
    28    27    14    1
    29    28     2    1
    30    28     1    1
    31    29     8    1
    32    29     7    1
    33    30     9    2
