@<TRIPOS>MOLECULE
7RB5_NWA_A601
 10 9 0 0 0
SMALL
GASTEIGER

@<TRIPOS>ATOM
      1  N1        91.4850   80.4100   -8.9090 N.4   601  NWA601      0.3857
      2  C2        90.5160   81.4920   -9.0380 C.3   601  NWA601     -0.0732
      3  C3        90.5880   82.1620  -10.4140 C.3   601  NWA601     -0.0197
      4  C5        89.3270   83.6970  -12.0050 C.3   601  NWA601      0.1520
      5  O7        90.6200   83.9920  -12.4630 O.3   601  NWA601     -0.2232
      6  C6        88.6130   85.0380  -11.8460 C.3   601  NWA601      0.0355
      7  C8        91.2450   79.6900   -7.6780 C.3   601  NWA601     -0.0960
      8  C9        92.8360   80.9340   -8.8610 C.3   601  NWA601     -0.0960
      9  C10       91.3430   79.4830  -10.0140 C.3   601  NWA601     -0.0960
     10  C4        89.3350   83.0130  -10.6310 C.3   601  NWA601      0.0308
@<TRIPOS>BOND
     1     5     4    1
     2     4     6    1
     3     4    10    1
     4    10     3    1
     5     3     2    1
     6     9     1    1
     7     2     1    1
     8     1     8    1
     9     1     7    1
