@<TRIPOS>MOLECULE
7RB6_NWA_B601
 10 9 0 0 0
SMALL
GASTEIGER

@<TRIPOS>ATOM
      1  N1        91.3980   80.7070   -8.9400 N.4   601  NWA601      0.3857
      2  C2        90.5460   81.8820   -9.0600 C.3   601  NWA601     -0.0732
      3  C3        90.4950   82.3840  -10.5050 C.3   601  NWA601     -0.0197
      4  C5        89.1830   83.7760  -12.1450 C.3   601  NWA601      0.1520
      5  O7        90.4750   84.0290  -12.5940 O.3   601  NWA601     -0.2232
      6  C6        88.4390   85.1130  -12.0960 C.3   601  NWA601      0.0355
      7  C8        92.6600   80.9210   -9.6270 C.3   601  NWA601     -0.0960
      8  C9        90.7310   79.5490   -9.5120 C.3   601  NWA601     -0.0960
      9  C10       91.6660   80.4750   -7.5330 C.3   601  NWA601     -0.0960
     10  C4        89.2510   83.2490  -10.7080 C.3   601  NWA601      0.0308
@<TRIPOS>BOND
     1     5     4    1
     2     4     6    1
     3     4    10    1
     4    10     3    1
     5     3     2    1
     6     7     1    1
     7     8     1    1
     8     2     1    1
     9     1     9    1
