6HUO_08H_D501
     RDKit          3D

 22 25  0  0  0  0  0  0  0  0999 V2000
  236.9130  215.0980  239.9830 C   0  0  0  0  0  0  0  0  0  0  0  0
  235.9330  214.2020  239.5570 C   0  0  0  0  0  0  0  0  0  0  0  0
  235.9140  213.7780  238.2470 C   0  0  0  0  0  0  0  0  0  0  0  0
  234.6720  212.6720  237.7360 Cl  0  0  0  0  0  0  0  0  0  0  0  0
  236.8440  214.2120  237.3330 C   0  0  0  0  0  0  0  0  0  0  0  0
  237.8220  215.1030  237.7370 C   0  0  0  0  0  0  0  0  0  0  0  0
  237.8630  215.5520  239.0520 C   0  0  0  0  0  0  0  0  0  0  0  0
  238.8640  216.5030  239.4280 N   0  0  0  0  0  0  0  0  0  0  0  0
  240.1910  216.6020  239.0690 C   0  0  0  0  0  0  0  0  0  0  0  0
  240.8940  215.6520  238.1720 C   0  0  0  0  0  0  0  0  0  0  0  0
  240.7150  217.6590  239.6370 N   0  0  0  0  0  0  0  0  0  0  0  0
  239.7210  218.2810  240.3930 N   0  0  0  0  0  0  0  0  0  0  0  0
  238.6310  217.5700  240.2510 C   0  0  0  0  0  0  0  0  0  0  0  0
  237.2990  217.7790  240.8590 C   0  0  0  0  0  0  0  0  0  0  0  0
  237.0760  216.7130  241.8440 N   0  0  0  0  0  0  0  0  0  0  0  0
  236.9150  215.5170  241.4140 C   0  0  0  0  0  0  0  0  0  0  0  0
  236.6850  214.4590  242.4370 C   0  0  0  0  0  0  0  0  0  0  0  0
  237.3350  213.2350  242.3480 C   0  0  0  0  0  0  0  0  0  0  0  0
  237.1090  212.2510  243.2950 C   0  0  0  0  0  0  0  0  0  0  0  0
  236.2360  212.4760  244.3360 C   0  0  0  0  0  0  0  0  0  0  0  0
  235.5870  213.6880  244.4360 C   0  0  0  0  0  0  0  0  0  0  0  0
  235.8090  214.6780  243.4930 C   0  0  0  0  0  0  0  0  0  0  0  0
  2  1  2  0
  3  2  1  0
  4  3  1  0
  5  3  2  0
  6  5  1  0
  7  6  2  0
  7  1  1  0
  8  7  1  0
  9  8  1  0
 10  9  1  0
 11  9  2  0
 12 11  1  0
 13  8  1  0
 13 12  2  0
 14 13  1  0
 15 14  1  0
 16 15  2  0
 16  1  1  0
 17 16  1  0
 18 17  2  0
 19 18  1  0
 20 19  2  0
 21 20  1  0
 22 21  2  0
 22 17  1  0
M  END
>  <_TriposChargeType>  (1) 
GASTEIGER

$$$$
