@<TRIPOS>MOLECULE
5ZKB_82F_A1201
 35 38 0 0 0
SMALL
GASTEIGER

@<TRIPOS>ATOM
      1 C         139.4730  149.5490  100.9140 C.ar    1  UNL1        0.1004
      2 C         138.4570  147.9090  102.1350 C.ar    1  UNL1        0.1579
      3 C         137.8130  147.0880  104.3420 C.ar    1  UNL1        0.0654
      4 N         138.4760  149.1850  101.7350 N.ar    1  UNL1       -0.2271
      5 C         137.4670  147.8310  105.4680 C.ar    1  UNL1        0.0155
      6 C         137.8530  147.3900  106.7220 C.ar    1  UNL1        0.0013
      7 N         137.4270  147.5430  103.0400 N.am    1  UNL1       -0.2039
      8 C         138.5760  146.2230  106.8610 C.ar    1  UNL1        0.0002
      9 C         138.9270  145.4780  105.7480 C.ar    1  UNL1        0.0058
     10 C         138.5520  145.9010  104.4740 C.ar    1  UNL1        0.0695
     11 C         136.0580  147.5800  102.6450 C.2     1  UNL1        0.3319
     12 N         135.2100  147.0300  103.5190 N.am    1  UNL1       -0.1864
     13 C         133.7870  147.0350  103.2190 C.3     1  UNL1        0.1341
     14 C         133.3550  145.7470  102.5500 C.3     1  UNL1        0.0959
     15 C         131.3980  144.3200  102.7160 C.3     1  UNL1        0.0721
     16 N         131.9930  145.4940  102.0640 N.3     1  UNL1       -0.2711
     17 N         139.3530  145.6120  102.1650 N.am    1  UNL1       -0.1726
     18 C         138.9840  145.0470  103.3300 C.2     1  UNL1        0.2703
     19 O         138.9800  143.8250  103.4540 O.2     1  UNL1       -0.2680
     20 C         139.4080  146.9600  101.7360 C.ar    1  UNL1        0.1059
     21 C         132.0240  143.0350  102.2310 C.3     1  UNL1        0.0174
     22 C         131.9020  142.9100  100.7300 C.3     1  UNL1        0.0029
     23 C         132.4880  144.1320  100.0340 C.3     1  UNL1        0.0174
     24 C         131.8840  145.4130  100.5920 C.3     1  UNL1        0.0735
     25 C         140.4280  147.3700  100.8850 C.ar    1  UNL1        0.0211
     26 C         130.4550  145.7060  100.1280 C.3     1  UNL1        0.0882
     27 C         131.1840  147.8710   99.2540 C.3     1  UNL1        0.0721
     28 C         131.9690  149.0390   99.8120 C.3     1  UNL1        0.0173
     29 C         132.7670  149.7370   98.7430 C.3     1  UNL1        0.0015
     30 C         128.9850  147.6500  100.2700 C.3     1  UNL1        0.0721
     31 C         128.7210  148.7020  101.3200 C.3     1  UNL1        0.0173
     32 C         127.3080  149.1630  101.2910 C.3     1  UNL1        0.0015
     33 C         140.4560  148.6900  100.4710 C.ar    1  UNL1        0.0221
     34 N         130.3700  147.1660  100.2530 N.3     1  UNL1       -0.2715
     35 O         135.7390  148.0800  101.5760 O.2     1  UNL1       -0.2500
@<TRIPOS>BOND
     1     4     2   ar
     2     4     1   ar
     3     5     3   ar
     4     6     5   ar
     5     7     3    1
     6     7     2    1
     7     8     6   ar
     8     9     8   ar
     9    10     9   ar
    10    10     3   ar
    11    11     7   am
    12    12    11   am
    13    13    12    1
    14    14    13    1
    15    16    15    1
    16    16    14    1
    17    18    17   am
    18    18    10    1
    19    19    18    2
    20    20    17    1
    21    20     2   ar
    22    21    15    1
    23    22    21    1
    24    23    22    1
    25    24    23    1
    26    24    16    1
    27    25    20   ar
    28    24    26    1
    29    28    27    1
    30    29    28    1
    31    31    30    1
    32    32    31    1
    33    33    25   ar
    34    33     1   ar
    35    34    26    1
    36    34    30    1
    37    34    27    1
    38    35    11    2
