@<TRIPOS>MOLECULE
3REY_XAC_A999
 31 33 0 0 0
SMALL
GASTEIGER

@<TRIPOS>ATOM
      1 C          -0.4260   96.8900   51.7500 C.ar    1  UNL1        0.2850
      2 N           2.2100   95.8790   51.8150 N.ar    1  UNL1       -0.2648
      3 O          -1.5650   97.3730   51.7700 O.2     1  UNL1       -0.2651
      4 C           1.2930   95.3860   50.9120 C.ar    1  UNL1        0.3349
      5 N          -0.0000   95.8820   50.9290 N.ar    1  UNL1       -0.2474
      6 O           1.6260   94.5010   50.1100 O.2     1  UNL1       -0.2461
      7 C           1.6840   98.4140   54.2680 C.ar    1  UNL1        0.1641
      8 N           2.5680   97.5560   53.7210 N.ar    1  UNL1       -0.2077
      9 O           2.7210  101.7380   58.7720 O.3     1  UNL1       -0.4656
     10 C           1.8430   96.9060   52.7190 C.ar    1  UNL1        0.1714
     11 N           0.4820   98.3320   53.6580 N.ar    1  UNL1       -0.2187
     12 O           3.7920  103.5690   60.8590 O.2     1  UNL1       -0.2693
     13 C           0.5860   97.3720   52.6690 C.ar    1  UNL1        0.1730
     14 N           3.5790  101.6280   61.9890 N.am    1  UNL1       -0.2007
     15 C          -1.0120   95.2520   50.0510 C.3     1  UNL1        0.1136
     16 N           3.0810  101.5900   65.6830 N.3     1  UNL1       -0.1294
     17 C          -1.7290   94.0890   50.7650 C.3     1  UNL1        0.0247
     18 C           3.5740   95.3380   51.9000 C.3     1  UNL1        0.1120
     19 C           4.5820   96.1970   51.1170 C.3     1  UNL1        0.0247
     20 C           6.0290   95.7500   51.3440 C.3     1  UNL1        0.0021
     21 C          -2.6790   93.3190   49.8430 C.3     1  UNL1        0.0021
     22 C           2.5500  100.9410   57.6600 C.ar    1  UNL1        0.1393
     23 C           3.5390  100.0750   57.1330 C.ar    1  UNL1        0.0370
     24 C           3.2590   99.2600   56.0190 C.ar    1  UNL1        0.0062
     25 C           1.9890   99.2990   55.3980 C.ar    1  UNL1        0.0360
     26 C           1.0140  100.1890   55.9030 C.ar    1  UNL1        0.0062
     27 C           1.2960  101.0000   57.0220 C.ar    1  UNL1        0.0370
     28 C           3.8940  101.5480   59.5590 C.3     1  UNL1        0.2911
     29 C           3.7520  102.3360   60.8650 C.2     1  UNL1        0.2859
     30 C           3.4380  102.1830   63.3270 C.3     1  UNL1        0.1357
     31 C           3.2260  101.0510   64.3450 C.3     1  UNL1        0.1327
@<TRIPOS>BOND
     1     3     1    2
     2     4     2   ar
     3     5     4   ar
     4     5     1   ar
     5     6     4    2
     6     8     7   ar
     7    10     8   ar
     8    10     2   ar
     9    11     7   ar
    10    13    10   ar
    11    13     1   ar
    12    13    11   ar
    13    15     5    1
    14    17    15    1
    15    18     2    1
    16    19    18    1
    17    20    19    1
    18    21    17    1
    19    22     9    1
    20    23    22   ar
    21    24    23   ar
    22    25     7    1
    23    25    24   ar
    24    26    25   ar
    25    27    26   ar
    26    27    22   ar
    27    28     9    1
    28    29    28    1
    29    29    14   am
    30    29    12    2
    31    30    14    1
    32    31    30    1
    33    31    16    1
