@<TRIPOS>MOLECULE
5IU8_6DZ_A2401
 25 28 0 0 0
SMALL
GASTEIGER

@<TRIPOS>ATOM
      1 N           1.1160   94.9980   52.5280 N.ar    1  UNL1       -0.1861
      2 C           0.0220   94.6120   51.8250 C.ar    1  UNL1        0.2196
      3 C           0.6610   92.2190   51.0680 C.ar    1  UNL1        0.0440
      4 C          -0.0440   91.1250   50.5830 C.ar    1  UNL1        0.0439
      5 C          -1.3810   91.4810   50.5170 C.ar    1  UNL1        0.1798
      6 C          -0.2780  102.6750   54.5860 C.3     1  UNL1        0.0897
      7 C          -1.0370  105.9870   55.4760 C.3     1  UNL1        0.0897
      8 N          -0.8590  104.7340   55.6540 N.3     1  UNL1       -0.2691
      9 C           0.1800  104.5440   56.5050 C.3     1  UNL1        0.0897
     10 C           0.5730  103.0840   56.6170 C.3     1  UNL1        0.0897
     11 N           0.7970  102.5450   55.3980 N.3     1  UNL1       -0.2688
     12 C           1.1370  101.3180   55.5120 C.3     1  UNL1        0.0959
     13 C           1.8210  100.8350   54.2500 C.3     1  UNL1        0.1326
     14 N           2.1450   99.4540   54.3580 N.pl3   1  UNL1       -0.2023
     15 C           1.3470   98.5150   53.6590 C.ar    1  UNL1        0.2416
     16 N           1.7570   97.2400   53.5140 N.ar    1  UNL1       -0.1757
     17 C           0.9610   96.3430   52.8300 C.ar    1  UNL1        0.2594
     18 N          -0.7930   95.6730   51.6950 N.ar    1  UNL1       -0.1374
     19 N          -0.1920   96.7380   52.3230 N.ar    1  UNL1       -0.1614
     20 C          -0.6070   98.0440   52.4720 C.ar    1  UNL1        0.2627
     21 N          -1.8470   98.4620   51.9260 N.pl3   1  UNL1       -0.0858
     22 N           0.1680   98.9160   53.1380 N.ar    1  UNL1       -0.1769
     23 C          -0.2620   93.2290   51.2890 C.ar    1  UNL1        0.1828
     24 O          -1.4830   92.7570   50.9520 O.2     1  UNL1       -0.4472
     25 C          -0.7010  104.1240   54.4540 C.3     1  UNL1        0.0897
@<TRIPOS>BOND
     1     2     1   ar
     2     4     3   ar
     3     5     4   ar
     4     8     7    1
     5     9     8    1
     6    10     9    1
     7    11    10    1
     8    11     6    1
     9    12    11    1
    10    13    12    1
    11    14    13    1
    12    15    14    1
    13    16    15   ar
    14    17    16   ar
    15    17     1   ar
    16    18     2   ar
    17    19    18   ar
    18    19    17   ar
    19    20    19   ar
    20    21    20    1
    21    22    20   ar
    22    22    15   ar
    23    23     3   ar
    24    23     2    1
    25    24     5   ar
    26    24    23   ar
    27    25     6    1
    28    25     8    1
