@<TRIPOS>MOLECULE
5OLO_9XW_A1201
 28 31 0 0 0
SMALL
GASTEIGER

@<TRIPOS>ATOM
      1 C           1.0210   95.3190   52.1920 C.ar    1  UNL1        0.0660
      2 C          -0.9010   97.0120   51.9640 C.ar    1  UNL1        0.1873
      3 C          -1.4070   99.4760   52.3020 C.2     1  UNL1        0.3292
      4 C          -2.1870  101.9110   52.5760 C.3     1  UNL1        0.0975
      5 C          -3.0530  102.2430   53.7850 C.3     1  UNL1        0.0520
      6 C          -4.5060  101.9200   53.5580 C.3     1  UNL1        0.1300
      7 C          -3.8130  100.2590   51.8230 C.3     1  UNL1        0.0975
      8 C          -0.1850   94.8750   51.6480 C.ar    1  UNL1        0.1243
      9 C          -1.9630   91.7320   51.0810 C.3     1  UNL1        0.2525
     10 C          -0.3380   93.5170   51.2320 C.ar    1  UNL1        0.1568
     11 C           0.7000   92.6440   51.3620 C.ar    1  UNL1        0.0398
     12 C           1.9380   93.0910   51.9180 C.ar    1  UNL1        0.0182
     13 C           2.0960   94.4230   52.3310 C.ar    1  UNL1        0.0558
     14 C           4.4600   95.1380   52.0160 C.3     1  UNL1        0.1231
     15 C           5.7930   95.0570   52.6970 C.3     1  UNL1        0.1636
     16 C           4.7500   95.4610   54.7950 C.3     1  UNL1        0.1636
     17 C           3.4060   95.5440   54.1230 C.3     1  UNL1        0.1231
     18 C          -5.2470  101.9910   54.8880 C.3     1  UNL1        0.0330
     19 C          -4.7340  100.5500   52.9840 C.3     1  UNL1        0.0520
     20 N           3.3630   94.8500   52.8920 N.pl3   1  UNL1       -0.3023
     21 N          -1.8040   98.1310   51.9450 N.am    1  UNL1       -0.1371
     22 N          -2.4320  100.5340   52.2260 N.am    1  UNL1       -0.2624
     23 N          -1.1910   95.7830   51.5360 N.ar    1  UNL1       -0.2193
     24 O          -1.5900   93.0790   50.6750 O.3     1  UNL1       -0.4699
     25 O           5.8140   95.8360   53.9000 O.3     1  UNL1       -0.3501
     26 O          -0.2680   99.7520   52.6560 O.2     1  UNL1       -0.2503
     27 O          -5.0560  102.8880   52.6700 O.3     1  UNL1       -0.2256
     28 S           0.7510   96.9870   52.5450 S.2     1  UNL1       -0.0483
@<TRIPOS>BOND
     1     5     4    1
     2     6     5    1
     3     8     1   ar
     4    10     8   ar
     5    11    10   ar
     6    12    11   ar
     7    13    12   ar
     8    13     1   ar
     9    15    14    1
    10    17    16    1
    11     6    18    1
    12    19     7    1
    13    19     6    1
    14    20    17    1
    15    20    14    1
    16    20    13    1
    17    21     2    1
    18    21     3   am
    19    22     7    1
    20    22     4    1
    21    22     3   am
    22    23     8   ar
    23    23     2   ar
    24    24     9    1
    25    24    10    1
    26    25    16    1
    27    25    15    1
    28    26     3    2
    29    27     6    1
    30    28     2   ar
    31    28     1   ar
