@<TRIPOS>MOLECULE
5OLV_9Y2_A1201
 24 25 0 0 0
SMALL
GASTEIGER

@<TRIPOS>ATOM
      1 C           2.2800   97.8080   54.1260 C.ar    1  UNL1        0.1577
      2 C           2.5930   95.6750   53.0760 C.ar    1  UNL1        0.0600
      3 C           4.4410   96.7660   54.1050 C.ar    1  UNL1        0.1577
      4 C           2.0320   94.4590   52.4000 C.2     1  UNL1        0.2708
      5 C           0.0970   93.4310   51.3830 C.ar    1  UNL1        0.1861
      6 C          -1.6040   92.1920   50.6160 C.ar    1  UNL1        0.1079
      7 C           2.9820  100.5600   57.7480 C.3     1  UNL1        0.0005
      8 C           3.5700  101.6970   56.9270 C.3     1  UNL1        0.0087
      9 C           2.4230  102.2940   56.1530 C.3     1  UNL1        0.0005
     10 C           4.1330  102.7390   57.8970 C.3     1  UNL1        0.0005
     11 C           4.6580  101.2350   55.9430 C.3     1  UNL1        0.0872
     12 C           4.1110  100.2730   54.8850 C.2     1  UNL1        0.2457
     13 C           3.6450   97.8340   54.4270 C.ar    1  UNL1        0.1280
     14 C           1.7380   96.7160   53.4420 C.ar    1  UNL1        0.0357
     15 C           3.9310   95.6630   53.4300 C.ar    1  UNL1        0.0357
     16 C          -0.6290   91.2240   50.5150 C.ar    1  UNL1        0.0588
     17 F           1.4960   98.8470   54.4750 F       1  UNL1       -0.2027
     18 F           5.7210   96.8010   54.4110 F       1  UNL1       -0.2027
     19 N           4.1630   98.9110   55.1960 N.am    1  UNL1       -0.1746
     20 N           0.7200   94.5460   51.9290 N.am    1  UNL1       -0.1505
     21 N          -1.1950   93.3680   51.0960 N.ar    1  UNL1       -0.2209
     22 O           3.7000  100.6030   53.7850 O.2     1  UNL1       -0.2730
     23 O           2.6920   93.4260   52.4020 O.2     1  UNL1       -0.2679
     24 S           0.8500   91.9150   51.0730 S.2     1  UNL1       -0.0491
@<TRIPOS>BOND
     1     4     2    1
     2     8     7    1
     3     9     8    1
     4    10     8    1
     5    11     8    1
     6    12    11    1
     7    13     3   ar
     8    13     1   ar
     9    14     2   ar
    10    14     1   ar
    11    15     3   ar
    12    15     2   ar
    13    16     6   ar
    14    17     1    1
    15    18     3    1
    16    19    13    1
    17    19    12   am
    18    20     5    1
    19    20     4   am
    20    21     6   ar
    21    21     5   ar
    22    22    12    2
    23    23     4    2
    24    24    16   ar
    25    24     5   ar
