@<TRIPOS>MOLECULE
6ZDV_QGW_A1201
 25 27 0 0 0
SMALL
GASTEIGER

@<TRIPOS>ATOM
      1 C           1.7200   97.9000   53.5710 C.ar    1  UNL1        0.1509
      2 C          -1.9340   92.1660   50.5280 C.3     1  UNL1        0.0527
      3 C           3.8190   96.9140   54.2190 C.ar    1  UNL1        0.0050
      4 C           4.1260   98.0930   54.8600 C.ar    1  UNL1        0.0128
      5 C           3.2790   99.1830   54.8750 C.ar    1  UNL1        0.1475
      6 C           2.0340   99.1050   54.2110 C.ar    1  UNL1        0.0748
      7 C           4.1620  101.3720   54.9740 C.2     1  UNL1        0.3220
      8 C           3.8930  102.5660   55.9070 C.3     1  UNL1        0.1216
      9 C           5.4200   98.2230   55.5860 C.3     1  UNL1        0.0295
     10 C           5.3600   97.5760   56.9090 C.3     1  UNL1        0.0048
     11 C           4.6370   98.4210   57.9230 C.3     1  UNL1        0.0004
     12 C           2.6130   96.8240   53.5870 C.ar    1  UNL1        0.0735
     13 C           2.3040   95.5870   52.9200 C.ar    1  UNL1        0.2031
     14 C           1.0100   95.6300   52.2430 C.ar    1  UNL1        0.0930
     15 C           0.2560   96.7280   52.3550 C.ar    1  UNL1        0.1282
     16 C          -1.0580   96.9860   51.7780 C.3     1  UNL1        0.0727
     17 C           0.6200   94.3550   51.6470 C.ar    1  UNL1        0.1161
     18 C          -0.6430   92.7740   50.9550 C.ar    1  UNL1        0.0664
     19 C           0.5160   92.0650   50.9140 C.ar    1  UNL1        0.0516
     20 N          -0.5870   94.0140   51.3680 N.ar    1  UNL1       -0.2424
     21 O           0.5440   97.8500   52.9460 O.2     1  UNL1       -0.4574
     22 O           3.0830   94.6530   52.9390 O.2     1  UNL1       -0.2863
     23 O           3.7420  100.2470   55.5610 O.3     1  UNL1       -0.4243
     24 O           4.6790  101.4410   53.8720 O.2     1  UNL1       -0.2497
     25 S           1.7250   93.0440   51.4630 S.2     1  UNL1       -0.0661
@<TRIPOS>BOND
     1     4     3   ar
     2     5     4   ar
     3     6     1   ar
     4     6     5   ar
     5     8     7    1
     6     9     4    1
     7    10     9    1
     8    11    10    1
     9    12     3   ar
    10    12     1   ar
    11    13    12   ar
    12    14    13   ar
    13    15    14   ar
    14    16    15    1
    15    17    14    1
    16    18     2    1
    17    19    18   ar
    18    20    18   ar
    19    20    17   ar
    20    21    15   ar
    21    21     1   ar
    22    22    13    2
    23    23     7    1
    24    23     5    1
    25    24     7    2
    26    25    19   ar
    27    25    17   ar
