@<TRIPOS>MOLECULE
7PX4_8E2_A2404
 50 55 0 0 0
SMALL
GASTEIGER

@<TRIPOS>ATOM
      1  C29       -2.7900  105.7720   55.2180 C.ar  2404  8E22404     0.0176
      2  C30       -3.6820  106.8460   55.4050 C.ar  2404  8E22404     0.0382
      3  C31       -4.2930  107.0980   56.6590 C.ar  2404  8E22404     0.1394
      4  C32       -3.9370  106.2010   57.6750 C.ar  2404  8E22404     0.0382
      5  C34       -4.6360  109.4580   57.1700 C.3   2404  8E22404     0.2911
      6  C35       -3.5800  110.0810   56.1150 C.2   2404  8E22404     0.2860
      7  C36        0.2530   91.7680   50.8140 C.ar  2404  8E22404     0.0487
      8  C15        1.5080   98.2120   53.4780 C.ar  2404  8E22404     0.1690
      9  C20       -0.0560   94.2880   51.6350 C.2   2404  8E22404     0.4485
     10  C22        2.5690  100.4070   54.5860 C.3   2404  8E22404     0.1464
     11  C23        1.7300  100.6530   55.8800 C.3   2404  8E22404     0.0989
     12  C19        3.3090   96.8990   53.8610 C.ar  2404  8E22404     0.1308
     13  C18       -0.5910   97.7820   52.4450 C.3   2404  8E22404     0.4121
     14  C17        1.1120   95.9290   52.6290 C.2   2404  8E22404     0.3767
     15  C25       -0.3210  103.6570   57.1210 C.3   2404  8E22404     0.1081
     16  C1         7.8010  107.4250   57.9040 C.3   2404  8E22404     0.1742
     17  C16        1.9840   96.8830   53.2880 C.ar  2404  8E22404     0.1422
     18  C2         6.6700  107.3330   56.8120 C.3   2404  8E22404     0.1742
     19  C21       -0.4100   92.9310   51.0910 C.ar  2404  8E22404     0.2355
     20  C24        0.4550  102.2980   57.1430 C.3   2404  8E22404     0.0939
     21  C26       -0.8450  103.3420   54.8210 C.3   2404  8E22404     0.1081
     22  C27       -0.0450  101.9990   54.8160 C.3   2404  8E22404     0.0939
     23  C28       -2.4210  104.8570   56.2230 C.ar  2404  8E22404     0.0481
     24  C3         4.3980  108.1760   56.8280 C.3   2404  8E22404     0.1742
     25  C33       -3.0460  105.1310   57.4750 C.ar  2404  8E22404     0.0176
     26  C37       -0.6670   90.8330   50.3260 C.ar  2404  8E22404     0.0441
     27  C38       -1.8280   91.4450   50.3320 C.ar  2404  8E22404     0.1800
     28  C4         3.5550  109.3660   57.4080 C.3   2404  8E22404     0.1742
     29  C5         1.6610  107.8860   57.6000 C.3   2404  8E22404     0.1742
     30  C6         0.3990  107.6650   58.4890 C.3   2404  8E22404     0.1742
     31  C7        -0.6120  109.8390   58.3550 C.3   2404  8E22404     0.1656
     32  C8        -1.9720  110.5870   58.0530 C.3   2404  8E22404     0.1472
     33  C9         8.1010  106.9280   60.2310 C.3   2404  8E22404     0.1742
     34  N1        -2.3450  110.5960   56.5950 N.am  2404  8E22404    -0.1996
     35  N10       -1.4800  103.6730   56.1520 N.pl3 2404  8E22404    -0.3046
     36  N2         0.2370   98.6700   53.0650 N.2   2404  8E22404    -0.1902
     37  N3        -0.1850   96.4060   52.2120 N.pl3 2404  8E22404     0.0506
     38  N4        -1.8410   98.1960   52.0300 N.3   2404  8E22404    -0.0546
     39  N5         2.5210   98.9620   54.1290 N.ar  2404  8E22404    -0.2325
     40  N6         3.6050   98.1290   54.3520 N.ar  2404  8E22404    -0.1661
     41  N7         1.1830   94.6130   52.2690 N.2   2404  8E22404     0.0147
     42  N8        -0.9100   95.3670   51.5920 N.pl3 2404  8E22404     0.1770
     43  N9         1.0590  102.0140   55.8130 N.3   2404  8E22404    -0.2681
     44  O1         7.5270  106.5640   58.9970 O.3   2404  8E22404    -0.3484
     45  O2         5.7900  108.4460   56.8860 O.3   2404  8E22404    -0.3484
     46  O3         2.5120  108.8380   58.2020 O.3   2404  8E22404    -0.3484
     47  O4        -0.7040  108.4480   58.1010 O.3   2404  8E22404    -0.3492
     48  O7        -5.1740  108.1710   56.8340 O.3   2404  8E22404    -0.4656
     49  O8        -3.8290  110.1050   54.9600 O.2   2404  8E22404    -0.2693
     50  O9        -1.7910   92.7550   50.7910 O.2   2404  8E22404    -0.4426
@<TRIPOS>BOND
     1    26    27   ar
     2    26     7   ar
     3    27    50   ar
     4    50    19   ar
     5     7    19   ar
     6    19     9    1
     7    42     9    1
     8    42    37    1
     9     9    41    2
    10    38    13    1
    11    37    13    1
    12    37    14    1
    13    41    14    1
    14    13    36    1
    15    14    17    2
    16    36     8    2
    17    17     8   ar
    18    17    12   ar
    19     8    39   ar
    20    12    40   ar
    21    39    40   ar
    22    39    10    1
    23    10    11    1
    24    22    21    1
    25    22    43    1
    26    21    35    1
    27    49     6    2
    28     1     2   ar
    29     1    23   ar
    30     2     3   ar
    31    43    11    1
    32    43    20    1
    33     6    34   am
    34     6     5    1
    35    35    23    1
    36    35    15    1
    37    23    25   ar
    38    34    32    1
    39     3    48    1
    40     3     4   ar
    41    18    45    1
    42    18    16    1
    43    24    45    1
    44    24    28    1
    45    48     5    1
    46    15    20    1
    47    28    46    1
    48    25     4   ar
    49    29    46    1
    50    29    30    1
    51    16    44    1
    52    32    31    1
    53    47    31    1
    54    47    30    1
    55    44    33    1
