@<TRIPOS>MOLECULE
7PYR_8IM_A2404
 50 55 0 0 0
SMALL
GASTEIGER

@<TRIPOS>ATOM
      1  C29       -2.5380  105.7420   55.3460 C.ar  2404  8IM2404     0.0176
      2  C30       -3.4360  106.7940   55.5640 C.ar  2404  8IM2404     0.0382
      3  C31       -4.0540  106.9560   56.8100 C.ar  2404  8IM2404     0.1394
      4  C32       -3.7520  106.0440   57.8210 C.ar  2404  8IM2404     0.0382
      5  C34       -4.4180  109.2000   57.5690 C.3   2404  8IM2404     0.2911
      6  C35       -3.5030  109.9540   56.5570 C.2   2404  8IM2404     0.2860
      7  C36        0.4410   92.0310   50.9660 C.ar  2404  8IM2404     0.0487
      8  C15        1.5420   98.2530   53.5340 C.ar  2404  8IM2404     0.1690
      9  C20       -0.0220   94.4270   51.7190 C.2   2404  8IM2404     0.4485
     10  C22        2.6390  100.3600   54.6400 C.3   2404  8IM2404     0.1464
     11  C23        1.8420  100.6550   55.9500 C.3   2404  8IM2404     0.0989
     12  C19        3.2660   96.8560   53.9490 C.ar  2404  8IM2404     0.1308
     13  C18       -0.4790   97.8640   52.4730 C.3   2404  8IM2404     0.4121
     14  C17        1.1390   95.9820   52.7030 C.2   2404  8IM2404     0.3767
     15  C25       -0.1450  103.7480   57.1880 C.3   2404  8IM2404     0.1081
     16  C1         7.5450  107.7540   57.9720 C.3   2404  8IM2404     0.1742
     17  C16        1.9790   96.9140   53.3590 C.ar  2404  8IM2404     0.1422
     18  C2         6.9370  107.9880   56.5660 C.3   2404  8IM2404     0.1742
     19  C21       -0.3560   93.1190   51.2020 C.ar  2404  8IM2404     0.2355
     20  C24        0.6230  102.3950   57.2220 C.3   2404  8IM2404     0.0939
     21  C26       -0.7670  103.3650   54.9030 C.3   2404  8IM2404     0.1081
     22  C27        0.0110  102.0110   54.9120 C.3   2404  8IM2404     0.0939
     23  C28       -2.2260  104.8150   56.3490 C.ar  2404  8IM2404     0.0481
     24  C3         4.5500  108.1320   56.7420 C.3   2404  8IM2404     0.1742
     25  C33       -2.8580  105.0010   57.5900 C.ar  2404  8IM2404     0.0176
     26  C37       -0.4190   91.0070   50.4620 C.ar  2404  8IM2404     0.0441
     27  C38       -1.6740   91.5530   50.4350 C.ar  2404  8IM2404     0.1800
     28  C4         3.4400  109.2120   56.6380 C.3   2404  8IM2404     0.1742
     29  C5         1.6700  107.9310   57.5520 C.3   2404  8IM2404     0.1742
     30  C6         0.5810  107.9470   58.6480 C.3   2404  8IM2404     0.1742
     31  C7        -0.5060  110.0480   58.5990 C.3   2404  8IM2404     0.1656
     32  C8        -1.9440  110.6480   58.4500 C.3   2404  8IM2404     0.1472
     33  C9         7.2140  106.3050   59.7980 C.3   2404  8IM2404     0.1742
     34  N1        -2.3680  110.6050   57.0380 N.am  2404  8IM2404    -0.1996
     35  N10       -1.3100  103.6730   56.2610 N.pl3 2404  8IM2404    -0.3046
     36  N2         0.3220   98.7590   53.1020 N.2   2404  8IM2404    -0.1902
     37  N3        -0.1150   96.5050   52.2620 N.pl3 2404  8IM2404     0.0506
     38  N4        -1.7010   98.2770   52.0140 N.3   2404  8IM2404    -0.0546
     39  N5         2.5730   98.9290   54.2020 N.ar  2404  8IM2404    -0.2325
     40  N6         3.6100   98.0620   54.4510 N.ar  2404  8IM2404    -0.1661
     41  N7         1.2060   94.6760   52.3680 N.2   2404  8IM2404     0.0147
     42  N8        -0.8530   95.5070   51.6350 N.pl3 2404  8IM2404     0.1770
     43  N9         1.1610  102.0070   55.8820 N.3   2404  8IM2404    -0.2681
     44  O1         7.0280  106.5180   58.4220 O.3   2404  8IM2404    -0.3484
     45  O2         5.7960  108.8000   56.7740 O.3   2404  8IM2404    -0.3484
     46  O3         2.5460  109.0230   57.7130 O.3   2404  8IM2404    -0.3484
     47  O4        -0.5610  108.6740   58.2830 O.3   2404  8IM2404    -0.3492
     48  O7        -4.9420  107.9920   57.0440 O.3   2404  8IM2404    -0.4656
     49  O8        -3.7760  109.9680   55.3620 O.2   2404  8IM2404    -0.2693
     50  O9        -1.6610   92.8450   50.8860 O.2   2404  8IM2404    -0.4426
@<TRIPOS>BOND
     1    27    26   ar
     2    27    50   ar
     3    26     7   ar
     4    50    19   ar
     5     7    19   ar
     6    19     9    1
     7    42     9    1
     8    42    37    1
     9     9    41    2
    10    38    13    1
    11    37    13    1
    12    37    14    1
    13    41    14    1
    14    13    36    1
    15    14    17    2
    16    36     8    2
    17    17     8   ar
    18    17    12   ar
    19     8    39   ar
    20    12    40   ar
    21    39    40   ar
    22    39    10    1
    23    10    11    1
    24    21    22    1
    25    21    35    1
    26    22    43    1
    27     1     2   ar
    28     1    23   ar
    29    49     6    2
    30     2     3   ar
    31    43    11    1
    32    43    20    1
    33    35    23    1
    34    35    15    1
    35    23    25   ar
    36     6    34   am
    37     6     5    1
    38    18    45    1
    39    18    16    1
    40    28    24    1
    41    28    46    1
    42    24    45    1
    43     3    48    1
    44     3     4   ar
    45    34    32    1
    46    48     5    1
    47    15    20    1
    48    29    46    1
    49    29    30    1
    50    25     4   ar
    51    16    44    1
    52    47    31    1
    53    47    30    1
    54    44    33    1
    55    32    31    1
