@<TRIPOS>MOLECULE
8CIC_U30_A1202
 32 35 0 0 0
SMALL
GASTEIGER

@<TRIPOS>ATOM
      1 N          -0.8290   95.6100   51.5020 N.ar    1  UNL1       -0.2111
      2 N           0.6410   97.2190   52.7510 N.ar    1  UNL1       -0.2094
      3 C          -0.2240   93.2660   51.2380 C.ar    1  UNL1        0.0145
      4 C           0.0930   94.6460   51.7550 C.ar    1  UNL1        0.0855
      5 C          -0.5060   96.8810   52.0140 C.ar    1  UNL1        0.2566
      6 C           1.5010   96.1810   52.9640 C.ar    1  UNL1        0.1067
      7 C           2.7170   96.4480   53.7220 C.ar    1  UNL1        0.1409
      8 C           5.3350   98.1430   55.6100 C.3     1  UNL1        0.1745
      9 C           4.2090   99.1120   58.9880 C.ar    1  UNL1        0.0026
     10 C           3.5360  100.8340   57.4380 C.ar    1  UNL1        0.0861
     11 C           1.3170  102.0190   56.9200 C.3     1  UNL1        0.0391
     12 C          -1.5670   92.9030   51.2030 C.ar    1  UNL1        0.0012
     13 C          -1.9760   91.6520   50.7620 C.ar    1  UNL1        0.0007
     14 C          -1.0490   90.7030   50.3440 C.ar    1  UNL1        0.0100
     15 N           2.1350   89.3900   49.6410 N.1     1  UNL1       -0.1908
     16 C           1.2980   90.1340   49.9750 C.1     1  UNL1        0.1001
     17 O           3.4620  102.7950   56.1550 O.3     1  UNL1       -0.2196
     18 C           0.2930   91.0390   50.3780 C.ar    1  UNL1        0.0645
     19 C           4.6990   99.0030   56.6510 C.ar    1  UNL1        0.0833
     20 C           4.7720   98.4320   57.9240 C.ar    1  UNL1        0.0167
     21 C           3.5790  100.3300   58.7550 C.ar    1  UNL1        0.0172
     22 C           2.8310  102.1770   57.2310 C.3     1  UNL1        0.1614
     23 C           2.9810  103.0900   58.4510 C.3     1  UNL1        0.0391
     24 C           1.2380   94.9100   52.5000 C.ar    1  UNL1        0.0400
     25 C           0.7290   92.2960   50.8200 C.ar    1  UNL1       -0.0108
     26 C           2.2030   92.4890   50.7880 C.3     1  UNL1        0.0318
     27 C           3.2450   97.6100   54.2830 C.ar    1  UNL1        0.1195
     28 N          -1.4210   97.8860   51.7590 N.pl3   1  UNL1       -0.0860
     29 N           4.4680   97.2090   54.8840 N.ar    1  UNL1       -0.2241
     30 N           4.0850  100.1730   56.3950 N.ar    1  UNL1       -0.2496
     31 N           4.6360   95.8740   54.6880 N.ar    1  UNL1       -0.0634
     32 N           3.6510   95.4210   54.0230 N.ar    1  UNL1       -0.1272
@<TRIPOS>BOND
     1     4     3    1
     2     4     1   ar
     3     5     2   ar
     4     5     1   ar
     5     6     2   ar
     6     7     6    1
     7    12     3   ar
     8    13    12   ar
     9    14    13   ar
    10    16    15    3
    11    18    16    1
    12    18    14   ar
    13    19     8    1
    14    20    19   ar
    15    20     9   ar
    16    21    10   ar
    17    21     9   ar
    18    22    17    1
    19    22    11    1
    20    22    10    1
    21    23    22    1
    22    24     6   ar
    23    24     4   ar
    24    25    18   ar
    25    25     3   ar
    26    26    25    1
    27    27     7   ar
    28    28     5    1
    29    29    27   ar
    30    29     8    1
    31    30    19   ar
    32    30    10   ar
    33    31    29   ar
    34    32     7   ar
    35    32    31   ar
