@<TRIPOS>MOLECULE
8CU7_LJX_A1202
 28 31 0 0 0
SMALL
GASTEIGER

@<TRIPOS>ATOM
      1 C          -0.9050   90.8210   50.1760 C.ar    1  UNL1        0.0355
      2 C           2.4910   98.9060   54.5010 C.1     1  UNL1       -0.0256
      3 C           3.1940   99.6180   55.1540 C.1     1  UNL1       -0.0835
      4 C           4.0400  100.4760   55.9940 C.3     1  UNL1        0.0765
      5 C           3.8410  100.1420   57.4770 C.3     1  UNL1        0.0140
      6 C           2.3590  100.0490   57.8510 C.3     1  UNL1        0.0010
      7 C           1.5680  101.2480   57.3250 C.3     1  UNL1        0.0000
      8 C           1.6530   98.0440   53.7330 C.ar    1  UNL1        0.2091
      9 C           0.4150   90.9030   49.9280 C.ar    1  UNL1        0.0076
     10 C           1.2940   95.9240   52.7560 C.ar    1  UNL1        0.1696
     11 C           0.0940   96.3540   52.2790 C.ar    1  UNL1        0.1517
     12 C          -0.3300   97.6580   52.5380 C.ar    1  UNL1        0.1924
     13 C           1.0160   92.1080   50.4020 C.ar    1  UNL1        0.0100
     14 C           0.3660   94.2690   51.6440 C.ar    1  UNL1        0.1528
     15 C           0.1180   92.9490   51.0270 C.ar    1  UNL1        0.0637
     16 N           0.4590   98.4870   53.2680 N.ar    1  UNL1       -0.1995
     17 N           2.0640   96.7760   53.4820 N.ar    1  UNL1       -0.2003
     18 S          -1.4370   92.2230   51.0010 S.2     1  UNL1       -0.0834
     19 C           3.5600   94.2210   53.7650 C.3     1  UNL1        0.2337
     20 C           2.6310   92.1420   54.3650 C.3     1  UNL1        0.1799
     21 C           3.9170   92.9350   54.5010 C.3     1  UNL1        0.2160
     22 C           2.6110   93.7380   52.6580 C.3     1  UNL1        0.2409
     23 N           1.4710   94.6290   52.3650 N.ar    1  UNL1       -0.2714
     24 N          -0.4840   95.3160   51.5850 N.ar    1  UNL1       -0.2217
     25 N          -1.5050   98.0970   52.0750 N.pl3   1  UNL1       -0.1054
     26 O           4.7510   94.7390   53.1950 O.3     1  UNL1       -0.2155
     27 O           2.0540   92.5020   53.1090 O.3     1  UNL1       -0.3306
     28 O           5.0160   92.2630   53.8980 O.3     1  UNL1       -0.2175
@<TRIPOS>BOND
     1     3     2    3
     2     4     3    1
     3     5     4    1
     4     6     5    1
     5     7     6    1
     6     8     2    1
     7     9     1   ar
     8    11    10   ar
     9    12    11   ar
    10    13     9   ar
    11    15    13   ar
    12    15    14    1
    13    16    12   ar
    14    16     8   ar
    15    17    10   ar
    16    17     8   ar
    17    18     1   ar
    18    18    15   ar
    19    21    20    1
    20    21    19    1
    21    22    19    1
    22    22    23    1
    23    23    14   ar
    24    23    10   ar
    25    24    14   ar
    26    24    11   ar
    27    25    12    1
    28    19    26    1
    29    27    20    1
    30    27    22    1
    31    21    28    1
