@<TRIPOS>MOLECULE
8CU7_LJX_A1202
 28 31 0 0 0
SMALL
GASTEIGER

@<TRIPOS>ATOM
      1 C          -0.9390   90.7350   50.3610 C.ar    1  UNL1        0.0355
      2 C           2.5320   98.8660   54.5390 C.1     1  UNL1       -0.0256
      3 C           3.2420   99.5830   55.1790 C.1     1  UNL1       -0.0835
      4 C           4.0970  100.4480   56.0030 C.3     1  UNL1        0.0765
      5 C           3.8970  100.1420   57.4910 C.3     1  UNL1        0.0140
      6 C           2.4150  100.0680   57.8690 C.3     1  UNL1        0.0010
      7 C           1.6330  101.2650   57.3230 C.3     1  UNL1        0.0000
      8 C           1.6860   97.9980   53.7880 C.ar    1  UNL1        0.2091
      9 C           0.3810   90.8010   50.1100 C.ar    1  UNL1        0.0076
     10 C           1.3070   95.8630   52.8480 C.ar    1  UNL1        0.1696
     11 C           0.1100   96.2960   52.3650 C.ar    1  UNL1        0.1517
     12 C          -0.3020   97.6080   52.6020 C.ar    1  UNL1        0.1924
     13 C           0.9930   92.0090   50.5620 C.ar    1  UNL1        0.0100
     14 C           0.3630   94.1970   51.7660 C.ar    1  UNL1        0.1528
     15 C           0.1030   92.8700   51.1740 C.ar    1  UNL1        0.0637
     16 N           0.4950   98.4430   53.3160 N.ar    1  UNL1       -0.1995
     17 N           2.0860   96.7220   53.5590 N.ar    1  UNL1       -0.2003
     18 S          -1.4580   92.1570   51.1620 S.2     1  UNL1       -0.0834
     19 C           3.5600   94.1590   53.8850 C.3     1  UNL1        0.2337
     20 C           2.6130   92.0990   54.5230 C.3     1  UNL1        0.1799
     21 C           3.9060   92.8840   54.6430 C.3     1  UNL1        0.2160
     22 C           2.6050   93.6660   52.7870 C.3     1  UNL1        0.2409
     23 N           1.4720   94.5610   52.4810 N.ar    1  UNL1       -0.2714
     24 N          -0.4770   95.2510   51.6910 N.ar    1  UNL1       -0.2217
     25 N          -1.4740   98.0490   52.1330 N.pl3   1  UNL1       -0.1054
     26 O           4.7550   94.6570   53.3050 O.3     1  UNL1       -0.2155
     27 O           2.0380   92.4420   53.2610 O.3     1  UNL1       -0.3306
     28 O           4.9990   92.1920   54.0510 O.3     1  UNL1       -0.2175
@<TRIPOS>BOND
     1     3     2    3
     2     4     3    1
     3     5     4    1
     4     6     5    1
     5     7     6    1
     6     8     2    1
     7     9     1   ar
     8    11    10   ar
     9    12    11   ar
    10    13     9   ar
    11    15    13   ar
    12    15    14    1
    13    16    12   ar
    14    16     8   ar
    15    17    10   ar
    16    17     8   ar
    17    18     1   ar
    18    18    15   ar
    19    21    20    1
    20    21    19    1
    21    22    19    1
    22    22    23    1
    23    23    14   ar
    24    23    10   ar
    25    24    14   ar
    26    24    11   ar
    27    25    12    1
    28    19    26    1
    29    27    20    1
    30    27    22    1
    31    21    28    1
