@<TRIPOS>MOLECULE
8JWY_VBF_A1201
 34 37 0 0 0
SMALL
GASTEIGER

@<TRIPOS>ATOM
      1 C          -0.0130   94.7440   51.6110 C.ar    1  UNL1        0.0855
      2 C           2.3310   96.8160   53.5300 C.ar    1  UNL1        0.0240
      3 C           3.6830   98.5040   54.5270 C.ar    1  UNL1        0.0787
      4 C           5.6250   98.0060   55.8410 C.3     1  UNL1        0.1548
      5 C           4.8630   97.9030   59.5750 C.ar    1  UNL1        0.0026
      6 C           4.0890   99.0510   59.6760 C.ar    1  UNL1        0.0172
      7 C           3.8490   99.8060   58.5410 C.ar    1  UNL1        0.0861
      8 C           1.7000  100.7790   59.3580 C.3     1  UNL1        0.0391
      9 C           4.2780   96.2850   54.8310 C.ar    1  UNL1        0.2613
     10 C           2.1520   92.6370   50.8020 C.3     1  UNL1        0.0318
     11 C           0.6330   92.4460   50.8300 C.ar    1  UNL1       -0.0108
     12 C           0.1870   91.1920   50.4460 C.ar    1  UNL1        0.0645
     13 C           1.2120   90.1300   50.0460 C.1     1  UNL1        0.1001
     14 C          -1.1640   90.8880   50.4240 C.ar    1  UNL1        0.0100
     15 C          -2.0850   91.8520   50.7890 C.ar    1  UNL1        0.0007
     16 C          -1.6480   93.1080   51.1710 C.ar    1  UNL1        0.0012
     17 C          -0.2990   93.4310   51.2050 C.ar    1  UNL1        0.0145
     18 C           1.0690   95.1050   52.4100 C.ar    1  UNL1        0.0384
     19 C           1.2400   96.4360   52.7550 C.ar    1  UNL1        0.0860
     20 C           2.5810   98.1600   53.7610 C.ar    1  UNL1        0.0204
     21 C           5.0890   98.3660   57.2320 C.ar    1  UNL1        0.0816
     22 C           5.3620   97.5640   58.3220 C.ar    1  UNL1        0.0167
     23 C           2.9990  101.0760   58.6150 C.3     1  UNL1        0.1614
     24 C           3.7710  102.1780   59.3370 C.3     1  UNL1        0.0391
     25 C           3.1910   95.8670   54.0660 C.ar    1  UNL1        0.0623
     26 C          -0.6700   96.9680   51.5950 C.ar    1  UNL1        0.2566
     27 N           1.9770   89.3470   49.7500 N.1     1  UNL1       -0.1908
     28 N           4.4850   97.5830   55.0320 N.ar    1  UNL1       -0.2884
     29 N           4.3460   99.4500   57.3730 N.ar    1  UNL1       -0.2496
     30 N           0.3610   97.3360   52.3390 N.ar    1  UNL1       -0.2111
     31 N          -1.6210   97.9710   51.1520 N.pl3   1  UNL1       -0.0860
     32 N          -0.8530   95.7030   51.2460 N.ar    1  UNL1       -0.2111
     33 O           2.7040  101.4840   57.3090 O.3     1  UNL1       -0.2196
     34 O           5.0220   95.4890   55.3010 O.2     1  UNL1       -0.2670
@<TRIPOS>BOND
     1     6     5   ar
     2     7     6   ar
     3    11    10    1
     4    12    11   ar
     5    13    12    1
     6    14    12   ar
     7    15    14   ar
     8    16    15   ar
     9    17    11   ar
    10    17    16   ar
    11    17     1    1
    12    18     1   ar
    13    19    18   ar
    14    19     2    1
    15    20     2   ar
    16    20     3   ar
    17    21     4    1
    18    22     5   ar
    19    22    21   ar
    20    23     8    1
    21    23     7    1
    22    24    23    1
    23    25     2   ar
    24    25     9   ar
    25    27    13    3
    26    28     9   ar
    27    28     3   ar
    28    28     4    1
    29    29    21   ar
    30    29     7   ar
    31    30    26   ar
    32    30    19   ar
    33    31    26    1
    34    32    26   ar
    35    32     1   ar
    36    33    23    1
    37    34     9    2
