@<TRIPOS>MOLECULE
8RWD_A1H3H_A1201
 27 29 0 0 0
SMALL
GASTEIGER

@<TRIPOS>ATOM
      1 N           2.6890   95.2200   53.2200 N.ar    1  UNL1       -0.2648
      2 N           1.8890   97.4620   53.8520 N.ar    1  UNL1       -0.2094
      3 C           5.0460   95.6640   53.8040 C.3     1  UNL1        0.0267
      4 C           1.7880   96.2690   53.1920 C.ar    1  UNL1        0.1695
      5 C           0.6540   96.1810   52.4380 C.ar    1  UNL1        0.1527
      6 C           0.7820   98.1120   53.4910 C.ar    1  UNL1        0.1457
      7 C           1.6710  103.5370   56.3470 C.ar    1  UNL1        0.2293
      8 C          -0.8980  106.0920   56.3880 C.3     1  UNL1        0.2526
      9 C           0.4230   99.4550   53.9200 C.2     1  UNL1        0.0371
     10 C          -0.2570  102.2110   54.8570 C.ar    1  UNL1        0.0033
     11 C           1.1380   92.8820   50.8160 C.3     1  UNL1        0.1137
     12 C           2.4060   94.0370   52.5620 C.ar    1  UNL1        0.3349
     13 C           3.7010   95.1830   54.2900 C.3     1  UNL1        0.1121
     14 C           0.4840  104.1880   55.9880 C.ar    1  UNL1        0.1774
     15 C          -0.4800  103.5220   55.2450 C.ar    1  UNL1        0.0402
     16 C           0.3530   95.0630   51.5870 C.ar    1  UNL1        0.2831
     17 O           0.3890  105.4810   56.4210 O.3     1  UNL1       -0.4682
     18 N           1.3250   94.0550   51.6910 N.ar    1  UNL1       -0.2475
     19 C           0.1890   91.8590   51.3830 C.3     1  UNL1        0.0267
     20 O           3.0700   93.0320   52.7410 O.2     1  UNL1       -0.2461
     21 C           1.1850  100.1810   54.7300 C.2     1  UNL1        0.0032
     22 C           0.9170  101.5440   55.2020 C.ar    1  UNL1        0.0035
     23 C           1.8750  102.2230   55.9600 C.ar    1  UNL1        0.0452
     24 C          -1.2810   97.7930   52.0550 C.3     1  UNL1        0.1321
     25 N          -0.0060   97.3800   52.6440 N.ar    1  UNL1       -0.3045
     26 O           2.6320  104.1890   57.0510 O.3     1  UNL1       -0.2833
     27 O          -0.6240   94.9260   50.8610 O.2     1  UNL1       -0.2652
@<TRIPOS>BOND
     1     4     2   ar
     2     4     1   ar
     3     5     4   ar
     4     6     2   ar
     5     9     6    1
     6    12     1   ar
     7    13     3    1
     8    13     1    1
     9    14     7   ar
    10    15    10   ar
    11    15    14   ar
    12    16     5   ar
    13    17    14    1
    14    17     8    1
    15    18    16   ar
    16    18    12   ar
    17    18    11    1
    18    19    11    1
    19    20    12    2
    20    21     9    2
    21    22    21    1
    22    22    10   ar
    23    23    22   ar
    24    23     7   ar
    25    25    24    1
    26    25     5   ar
    27    25     6   ar
    28    26     7    1
    29    27    16    2
