@<TRIPOS>MOLECULE
8WDT_WCH_A1000
 30 33 0 0 0
SMALL
GASTEIGER

@<TRIPOS>ATOM
      1 C           1.8550   91.1140   53.2680 C.3     1  UNL1        0.2225
      2 C           1.2030   90.3070   50.9750 C.2     1  UNL1        0.2713
      3 C           2.3910  100.7530   56.1000 C.ar    1  UNL1        0.1030
      4 C           2.6420  102.8910   57.4200 C.ar    1  UNL1        0.0016
      5 C           4.3510  101.0870   57.6470 C.ar    1  UNL1        0.0016
      6 C           0.1880   88.6680   49.2490 C.3     1  UNL1        0.1153
      7 C           1.1730   95.5360   52.4660 C.ar    1  UNL1        0.1706
      8 C          -0.0520   95.8790   51.8030 C.ar    1  UNL1        0.1519
      9 C           0.4990   93.7950   51.0680 C.ar    1  UNL1        0.1816
     10 C           1.2010   97.6400   53.6100 C.ar    1  UNL1        0.2731
     11 C          -0.6800   97.2400   52.0930 C.ar    1  UNL1        0.1933
     12 C           2.7340   93.2790   52.3420 C.3     1  UNL1        0.2413
     13 C           2.3620   90.9760   51.8250 C.3     1  UNL1        0.2273
     14 C           2.6240   92.4210   53.6850 C.3     1  UNL1        0.2342
     15 C           1.8940  102.0810   56.4660 C.ar    1  UNL1        0.0209
     16 C           3.8680  102.3950   58.0090 C.ar    1  UNL1        0.0001
     17 C           3.6180  100.2660   56.6960 C.ar    1  UNL1        0.0209
     18 C           0.3000   87.1240   49.0530 C.3     1  UNL1        0.0253
     19 N           1.5410   94.1850   51.9970 N.ar    1  UNL1       -0.2693
     20 N          -0.4320   94.7680   50.9440 N.ar    1  UNL1       -0.2193
     21 N           1.8060   96.4390   53.3870 N.ar    1  UNL1       -0.1896
     22 N          -0.0140   98.0850   53.0060 N.ar    1  UNL1       -0.1888
     23 N          -1.9010   97.6580   51.4710 N.pl3   1  UNL1       -0.1054
     24 N           1.9840   98.6680   54.7020 N.2     1  UNL1       -0.1080
     25 N           1.3370   89.2670   50.0330 N.am    1  UNL1       -0.2033
     26 N           1.5880   99.8090   55.0370 N.2     1  UNL1       -0.1450
     27 O           2.8480   92.2260   51.3800 O.3     1  UNL1       -0.3238
     28 O           2.1890   89.9680   53.9870 O.3     1  UNL1       -0.2171
     29 O           3.8840   92.0380   54.1130 O.3     1  UNL1       -0.2155
     30 O           0.0850   90.7750   51.1970 O.2     1  UNL1       -0.2706
@<TRIPOS>BOND
     1     8     7   ar
     2    11     8   ar
     3    13     2    1
     4    13     1    1
     5    14     1    1
     6    14    12    1
     7    15     4   ar
     8    15     3   ar
     9    16     5   ar
    10    16     4   ar
    11    17     5   ar
    12    17     3   ar
    13    18     6    1
    14    12    19    1
    15    19     9   ar
    16    19     7   ar
    17    20     9   ar
    18    20     8   ar
    19    21    10   ar
    20    21     7   ar
    21    22    11   ar
    22    22    10   ar
    23    23    11    1
    24    24    10    1
    25    25     6    1
    26    25     2   am
    27    26    24    2
    28    26     3    1
    29    27    13    1
    30    27    12    1
    31     1    28    1
    32    14    29    1
    33    30     2    2
