@<TRIPOS>MOLECULE
6PS5_SNP_A1201
 19 20 0 0 0
SMALL
GASTEIGER

@<TRIPOS>ATOM
      1 C         -28.5410   10.8980    6.7540 C.ar    1  UNL1        0.1386
      2 C         -28.3770   12.1060    6.0460 C.ar    1  UNL1        0.0369
      3 C         -27.2440   12.3260    5.2680 C.ar    1  UNL1        0.0031
      4 C         -26.2600   11.3520    5.1790 C.ar    1  UNL1        0.0002
      5 C         -25.3880    9.1800    5.7850 C.ar    1  UNL1        0.0001
      6 C         -25.4910    7.9780    6.4700 C.ar    1  UNL1        0.0000
      7 C         -26.6000    7.7310    7.2620 C.ar    1  UNL1        0.0001
      8 C         -27.6110    8.6830    7.3680 C.ar    1  UNL1        0.0030
      9 C         -27.5310    9.9110    6.6810 C.ar    1  UNL1        0.0340
     10 C         -26.3900   10.1490    5.8770 C.ar    1  UNL1        0.0029
     11 O         -29.6370   10.6170    7.5890 O.3     1  UNL1       -0.4727
     12 C         -30.9620   10.9250    7.1330 C.3     1  UNL1        0.2395
     13 C         -31.9100    9.9940    7.8730 C.3     1  UNL1        0.2126
     14 O         -33.0510   10.7380    8.3080 O.3     1  UNL1       -0.2176
     15 C         -32.2870    8.8070    6.9650 C.3     1  UNL1        0.1253
     16 N         -33.5040    8.0980    7.4030 N.3     1  UNL1       -0.2167
     17 C         -33.5350    6.6790    6.9840 C.3     1  UNL1        0.0730
     18 C         -34.2930    5.8920    8.0520 C.3     1  UNL1        0.0188
     19 C         -34.2000    6.4230    5.6240 C.3     1  UNL1        0.0188
@<TRIPOS>BOND
     1     2     1   ar
     2     3     2   ar
     3     4     3   ar
     4     6     5   ar
     5     7     6   ar
     6     8     7   ar
     7     9     8   ar
     8     9     1   ar
     9    10     9   ar
    10    10     5   ar
    11    10     4   ar
    12    11     1    1
    13    12    11    1
    14    13    12    1
    15    13    14    1
    16    15    13    1
    17    16    15    1
    18    17    16    1
    19    17    18    1
    20    19    17    1
