@<TRIPOS>MOLECULE
6PS6_TIM_A1201
 21 22 0 0 0
SMALL
GASTEIGER

@<TRIPOS>ATOM
      1 C         -27.8520    9.3920    8.1670 C.3     1  UNL1        0.1244
      2 C         -28.0130    7.8830    8.1150 C.3     1  UNL1        0.1636
      3 O         -26.7430    7.2720    7.8050 O.3     1  UNL1       -0.3501
      4 C         -26.2580    7.6630    6.5060 C.3     1  UNL1        0.1636
      5 C         -26.1060    9.1750    6.3830 C.3     1  UNL1        0.1244
      6 N         -27.2480    9.9150    6.9380 N.pl3   1  UNL1       -0.2838
      7 C         -27.6530   11.1040    6.3560 C.ar    1  UNL1        0.1954
      8 N         -26.7690   12.0020    5.8860 N.ar    1  UNL1       -0.1716
      9 S         -27.6570   13.2790    5.2790 S.2     1  UNL1        0.1206
     10 N         -29.1940   12.7450    5.6000 N.ar    1  UNL1       -0.1530
     11 C         -29.0240   11.5570    6.1970 C.ar    1  UNL1        0.2661
     12 O         -30.1570   10.8820    6.5570 O.3     1  UNL1       -0.4551
     13 C         -30.9290   11.4970    7.6050 C.3     1  UNL1        0.2413
     14 C         -32.0880   10.5960    8.0320 C.3     1  UNL1        0.2126
     15 O         -33.2500   11.4090    8.1820 O.3     1  UNL1       -0.2176
     16 C         -32.3530    9.3890    7.1000 C.3     1  UNL1        0.1253
     17 N         -33.5160    8.5770    7.5500 N.3     1  UNL1       -0.2180
     18 C         -33.5720    7.1080    7.2560 C.3     1  UNL1        0.0596
     19 C         -33.4130    6.6730    5.7910 C.3     1  UNL1        0.0174
     20 C         -32.5450    6.3440    8.0580 C.3     1  UNL1        0.0174
     21 C         -34.9520    6.6130    7.7160 C.3     1  UNL1        0.0174
@<TRIPOS>BOND
     1     2     1    1
     2     3     2    1
     3     4     3    1
     4     5     4    1
     5     6     1    1
     6     6     5    1
     7     7     6    1
     8     8     7   ar
     9     9     8   ar
    10    10     9   ar
    11    11    10   ar
    12    11     7   ar
    13    12    11    1
    14    13    12    1
    15    14    13    1
    16    14    15    1
    17    16    14    1
    18    17    16    1
    19    18    17    1
    20    18    19    1
    21    20    18    1
    22    21    18    1
