@<TRIPOS>MOLECULE
9I54_A1IZV_R501
 27 30 0 0 0
SMALL
GASTEIGER

@<TRIPOS>ATOM
      1 C         -29.4230    6.7430    7.3930 C.ar    1  UNL1        0.0704
      2 C         -29.5970    7.7000    6.4050 C.ar    1  UNL1        0.1685
      3 C         -30.6980    7.6330    5.5790 C.ar    1  UNL1        0.1364
      4 C         -28.9260   10.0130    6.3000 C.ar    1  UNL1        0.2327
      5 C         -29.3520   12.6510    6.3330 C.ar    1  UNL1        0.0584
      6 C         -34.6520    3.9490    7.6150 C.ar    1  UNL1        0.2804
      7 C         -33.8030    6.1960    8.3700 C.3     1  UNL1        0.0377
      8 C         -31.2270    3.3610    5.1340 C.3     1  UNL1        0.1352
      9 C         -26.4900   10.7080    5.3700 C.ar    1  UNL1        0.0484
     10 C         -32.5310    4.7430    6.7460 C.ar    1  UNL1        0.0844
     11 C         -27.8350   10.7860    5.8630 C.ar    1  UNL1        0.0912
     12 C         -28.1410   12.1410    5.9070 C.ar    1  UNL1        0.1515
     13 C         -30.3060   11.7400    6.7290 C.ar    1  UNL1        0.1052
     14 C         -33.6210    4.9570    7.5460 C.ar    1  UNL1        0.0535
     15 C         -33.3650    2.5870    6.0280 C.ar    1  UNL1        0.3528
     16 C         -31.4790    5.7580    6.6570 C.ar    1  UNL1        0.1245
     17 C         -26.0940   11.9610    5.1580 C.ar    1  UNL1        0.1798
     18 C         -30.3780    5.7680    7.5210 C.ar    1  UNL1        0.1621
     19 F         -30.2290    4.8330    8.4840 F       1  UNL1       -0.2024
     20 N         -30.1120   10.4160    6.7220 N.ar    1  UNL1       -0.2096
     21 N         -34.4420    2.8300    6.8410 N.ar    1  UNL1       -0.1534
     22 N         -32.3950    3.5760    5.9900 N.ar    1  UNL1       -0.2765
     23 N         -31.6320    6.6860    5.7000 N.ar    1  UNL1       -0.2369
     24 O         -33.2650    1.5600    5.3760 O.2     1  UNL1       -0.2443
     25 O         -35.6640    4.0460    8.3050 O.2     1  UNL1       -0.2654
     26 O         -27.0700   12.8830    5.4750 O.2     1  UNL1       -0.4502
     27 O         -28.6240    8.6860    6.2590 O.3     1  UNL1       -0.4343
@<TRIPOS>BOND
     1     2     1   ar
     2     3     2   ar
     3    11     4   ar
     4    11     9   ar
     5    12    11   ar
     6    12     5   ar
     7    13     5   ar
     8    14     6   ar
     9    14     7    1
    10    14    10   ar
    11    16    10    1
    12    17     9   ar
    13    18    16   ar
    14    18     1   ar
    15    19    18    1
    16    20     4   ar
    17    20    13   ar
    18    21    15   ar
    19    21     6   ar
    20    22    15   ar
    21    22     8    1
    22    22    10   ar
    23    23    16   ar
    24    23     3   ar
    25    24    15    2
    26    25     6    2
    27    26    12   ar
    28    26    17   ar
    29    27     4    1
    30    27     2    1
