@<TRIPOS>MOLECULE
9W3F_BER_A1201
 25 29 0 0 0
SMALL
GASTEIGER

@<TRIPOS>ATOM
      1 C         -30.4880    7.6650    7.6640 C.ar    1  UNL1        0.2260
      2 C         -29.8700    8.8840    7.1430 C.ar    1  UNL1        0.0630
      3 N         -31.8030    7.5110    7.7090 N.ar    1  UNL1       -0.1641
      4 C         -29.6040    6.6610    8.1570 C.ar    1  UNL1        0.0695
      5 C         -30.6720   10.0140    6.9680 C.ar    1  UNL1       -0.0062
      6 C         -28.4910    8.9410    6.8530 C.ar    1  UNL1        0.0458
      7 C         -32.3660    6.3760    8.2050 C.ar    1  UNL1        0.2929
      8 C         -32.7070    8.5450    7.2050 C.3     1  UNL1        0.3269
      9 C         -30.1690    5.4500    8.6960 C.ar    1  UNL1        0.0150
     10 C         -30.1120   11.2160    6.4770 C.ar    1  UNL1        0.0363
     11 C         -32.1650    9.9380    7.2910 C.3     1  UNL1        0.1119
     12 C         -27.9220   10.1580    6.3580 C.ar    1  UNL1        0.1766
     13 C         -31.5420    5.3140    8.7170 C.ar    1  UNL1        0.1068
     14 C         -29.3450    4.4120    9.1960 C.ar    1  UNL1        0.0037
     15 C         -28.7130   11.2710    6.1740 C.ar    1  UNL1        0.1761
     16 O         -26.6040   10.4920    5.9850 O.3     1  UNL1       -0.4346
     17 C         -32.1300    4.1290    9.2420 C.ar    1  UNL1        0.1782
     18 C         -29.9230    3.2520    9.7110 C.ar    1  UNL1        0.0401
     19 O         -27.8980   12.3130    5.6850 O.3     1  UNL1       -0.4346
     20 C         -26.6980   11.7050    5.2730 C.3     1  UNL1        0.4294
     21 C         -31.3200    3.1100    9.7330 C.ar    1  UNL1        0.1726
     22 O         -33.5220    3.9900    9.2640 O.3     1  UNL1       -0.4682
     23 O         -31.8950    1.9410   10.2510 O.3     1  UNL1       -0.4684
     24 C         -34.1130    4.3350   10.4880 C.3     1  UNL1        0.2526
     25 C         -31.2160    0.7650    9.9090 C.3     1  UNL1        0.2526
@<TRIPOS>UNITY_ATOM_ATTR
3 1
charge 1
@<TRIPOS>BOND
     1     2     1    1
     2     3     1   ar
     3     4     1   ar
     4     5     2   ar
     5     6     2   ar
     6     7     3   ar
     7     8     3    1
     8     9     4   ar
     9    10     5   ar
    10    11     8    1
    11    11     5    1
    12    12     6   ar
    13    13     9   ar
    14    13     7   ar
    15    14     9   ar
    16    15    12   ar
    17    15    10   ar
    18    16    12    1
    19    17    13   ar
    20    18    14   ar
    21    19    15    1
    22    20    19    1
    23    20    16    1
    24    21    18   ar
    25    21    17   ar
    26    22    17    1
    27    23    21    1
    28    24    22    1
    29    25    23    1
