@<TRIPOS>MOLECULE
2YDV_NEC_A400
 22 24 0 0 0
SMALL
GASTEIGER

@<TRIPOS>ATOM
      1 C           1.2100   90.3750   50.6250 C.2     1  UNL1        0.2713
      2 O           0.0750   90.8220   50.6610 O.2     1  UNL1       -0.2706
      3 N           1.5680   89.3410   49.8610 N.am    1  UNL1       -0.2033
      4 C           0.6060   88.4430   49.2450 C.3     1  UNL1        0.1153
      5 C           1.2180   87.6110   48.1330 C.3     1  UNL1        0.0253
      6 C           2.3010   90.9990   51.4510 C.3     1  UNL1        0.2273
      7 O           2.6230   92.2870   50.9090 O.3     1  UNL1       -0.3238
      8 C           1.8840   91.2350   52.9020 C.3     1  UNL1        0.2225
      9 O           2.3260   90.1900   53.7770 O.3     1  UNL1       -0.2171
     10 C           2.5360   92.5570   53.2530 C.3     1  UNL1        0.2342
     11 O           3.8600   92.3460   53.7620 O.3     1  UNL1       -0.2155
     12 C           2.6200   93.2970   51.9250 C.3     1  UNL1        0.2413
     13 N           1.4320   94.1980   51.8370 N.ar    1  UNL1       -0.2693
     14 C           0.2350   93.9150   51.2750 C.ar    1  UNL1        0.1816
     15 N          -0.6240   94.9620   51.3980 N.ar    1  UNL1       -0.2193
     16 C           0.0140   95.9370   52.0600 C.ar    1  UNL1        0.1518
     17 C          -0.3070   97.3100   52.5170 C.ar    1  UNL1        0.1919
     18 N          -1.5190   97.8700   52.2900 N.pl3   1  UNL1       -0.1054
     19 N           0.6640   97.9950   53.1710 N.ar    1  UNL1       -0.2040
     20 C           1.8780   97.4650   53.4020 C.ar    1  UNL1        0.2016
     21 N           2.2370   96.2290   53.0060 N.ar    1  UNL1       -0.2048
     22 C           1.3670   95.4310   52.3480 C.ar    1  UNL1        0.1692
@<TRIPOS>BOND
     1     2     1    2
     2     3     1   am
     3     4     3    1
     4     5     4    1
     5     6     1    1
     6     7     6    1
     7     8     6    1
     8     8     9    1
     9    10     8    1
    10    10    11    1
    11    12    10    1
    12    12     7    1
    13    12    13    1
    14    14    13   ar
    15    15    14   ar
    16    16    15   ar
    17    17    16   ar
    18    18    17    1
    19    19    17   ar
    20    20    19   ar
    21    21    20   ar
    22    22    21   ar
    23    22    16   ar
    24    22    13   ar
