@<TRIPOS>MOLECULE
4UHR_NGI_A1320
 36 39 0 0 0
SMALL
GASTEIGER

@<TRIPOS>ATOM
      1 C           1.5010   87.7560   48.1670 C.3     1  UNL1        0.0253
      2 N           1.7750   89.5080   49.8780 N.am    1  UNL1       -0.2033
      3 O           0.2390   90.6720   51.0620 O.2     1  UNL1       -0.2706
      4 C           0.8740   88.5110   49.3220 C.3     1  UNL1        0.1153
      5 N           1.5140   94.2790   51.9260 N.ar    1  UNL1       -0.2693
      6 O           2.6990   92.4110   50.9880 O.3     1  UNL1       -0.3238
      7 C           1.4040   90.4010   50.7990 C.2     1  UNL1        0.2713
      8 N          -0.5090   94.9740   51.3990 N.ar    1  UNL1       -0.2193
      9 O           4.0640   92.5490   53.8260 O.3     1  UNL1       -0.2155
     10 C           2.5230   91.0910   51.5180 C.3     1  UNL1        0.2273
     11 N          -1.5550   97.6870   52.1780 N.pl3   1  UNL1       -0.1054
     12 O           2.8540   90.2450   53.7900 O.3     1  UNL1       -0.2171
     13 C           2.7150   93.3990   52.0300 C.3     1  UNL1        0.2413
     14 N           0.5320   98.0180   53.1920 N.ar    1  UNL1       -0.1925
     15 O           0.6140  108.7230   56.5120 O.co2   1  UNL1       -0.2456
     16 C           2.7170   92.6380   53.3490 C.3     1  UNL1        0.2342
     17 N           2.6170   98.3860   54.2160 N.pl3   1  UNL1       -0.2034
     18 O           2.4300  107.5810   56.9900 O.co2   1  UNL1       -0.2456
     19 C           2.2120   91.2530   52.9990 C.3     1  UNL1        0.2225
     20 N           2.1960   96.3460   53.1300 N.ar    1  UNL1       -0.1933
     21 C           0.3690   93.9510   51.3070 C.ar    1  UNL1        0.1816
     22 C           0.0960   95.9610   52.0930 C.ar    1  UNL1        0.1518
     23 C          -0.3160   97.2320   52.4910 C.ar    1  UNL1        0.1930
     24 C           1.7790   97.5850   53.5110 C.ar    1  UNL1        0.2392
     25 C           2.4350   99.8290   54.2570 C.3     1  UNL1        0.1200
     26 C           2.0760  100.3470   55.6650 C.3     1  UNL1        0.0498
     27 C           1.5110  101.7580   55.6290 C.ar    1  UNL1       -0.0204
     28 C           1.0620  102.3450   54.4320 C.ar    1  UNL1       -0.0045
     29 C           0.5470  103.6450   54.4360 C.ar    1  UNL1       -0.0046
     30 C           0.4810  104.3710   55.6390 C.ar    1  UNL1       -0.0216
     31 C          -0.0770  105.7820   55.6650 C.3     1  UNL1        0.0382
     32 C           0.9590  106.7890   55.1670 C.3     1  UNL1        0.1187
     33 C           1.3240  107.7590   56.2690 C.2     1  UNL1        0.3652
     34 C           0.9260  103.7850   56.8300 C.ar    1  UNL1       -0.0046
     35 C           1.4410  102.4870   56.8260 C.ar    1  UNL1       -0.0045
     36 C           1.3750   95.5210   52.4210 C.ar    1  UNL1        0.1703
@<TRIPOS>BOND
     1     4     1    1
     2     4     2    1
     3     7     3    2
     4     7     2   am
     5    10     7    1
     6    10     6    1
     7    13     6    1
     8    13     5    1
     9    16     9    1
    10    16    13    1
    11    19    16    1
    12    19    12    1
    13    19    10    1
    14    21     8   ar
    15    21     5   ar
    16    22     8   ar
    17    23    22   ar
    18    23    14   ar
    19    23    11    1
    20    24    20   ar
    21    24    14   ar
    22    24    17    1
    23    25    17    1
    24    26    25    1
    25    27    26    1
    26    28    27   ar
    27    29    28   ar
    28    30    29   ar
    29    31    30    1
    30    32    31    1
    31    33    32    1
    32    33    18   ar
    33    33    15   ar
    34    34    30   ar
    35    35    27   ar
    36    35    34   ar
    37    36    22   ar
    38    36    20   ar
    39    36     5   ar
