@<TRIPOS>MOLECULE
5WF5_UKA_A1201
 57 63 0 0 0
SMALL
GASTEIGER

@<TRIPOS>ATOM
      1 C           2.7010   92.4840   53.2060 C.3     1  UNL1        0.2342
      2 N           1.4400   94.1750   51.8530 N.ar    1  UNL1       -0.2693
      3 O           2.4720   92.3360   50.8580 O.3     1  UNL1       -0.3238
      4 C           1.8850   91.2370   52.8620 C.3     1  UNL1        0.2225
      5 N           1.3470   89.2920   49.9580 N.am    1  UNL1       -0.2033
      6 O           2.2730   90.1200   53.6530 O.3     1  UNL1       -0.2171
      7 C           2.2520   91.0230   51.3910 C.3     1  UNL1        0.2273
      8 N          -0.5940   94.9670   51.3090 N.ar    1  UNL1       -0.2193
      9 O           4.0640   92.1820   53.4870 O.3     1  UNL1       -0.2155
     10 C           2.5890   93.2780   51.9070 C.3     1  UNL1        0.2413
     11 N           0.7780   97.9280   53.0800 N.ar    1  UNL1       -0.2046
     12 O          -0.0760   90.7820   50.8760 O.2     1  UNL1       -0.2706
     13 C           1.0630   90.3510   50.7150 C.2     1  UNL1        0.2713
     14 N           2.3100   96.1090   53.0380 N.ar    1  UNL1       -0.2035
     15 O           4.0420   97.5620   54.5090 O.2     1  UNL1       -0.2650
     16 C           0.3400   88.5100   49.2410 C.3     1  UNL1        0.1153
     17 N          -1.2790   97.8980   52.0020 N.pl3   1  UNL1       -0.2182
     18 O           2.3220  103.0020   56.6320 O.2     1  UNL1       -0.2492
     19 C           0.9080   87.2350   48.7090 C.3     1  UNL1        0.0253
     20 N           2.5740   99.2550   54.7370 N.am    1  UNL1       -0.1972
     21 C           0.2310   93.9500   51.2510 C.ar    1  UNL1        0.1816
     22 N           2.5400  102.1310   54.5620 N.am    1  UNL1       -0.1853
     23 C           0.1260   95.9310   52.0020 C.ar    1  UNL1        0.1500
     24 N           0.9020  103.6490   54.9850 N.am    1  UNL1       -0.1889
     25 C           1.3700   95.4530   52.3560 C.ar    1  UNL1        0.1691
     26 N          -2.2770  106.0470   56.4350 N.pl3   1  UNL1       -0.2931
     27 C          -0.1590   97.2620   52.3790 C.ar    1  UNL1        0.1701
     28 N          -3.6330  106.9130   54.7820 N.ar    1  UNL1       -0.2292
     29 C           1.9470   97.3460   53.3870 C.ar    1  UNL1        0.2211
     30 C          -1.4690   99.3340   52.1290 C.3     1  UNL1        0.1225
     31 C          -2.4690   99.6890   53.2290 C.3     1  UNL1        0.0662
     32 C          -2.9950  101.1150   53.1310 C.ar    1  UNL1       -0.0167
     33 C          -1.8660   99.4190   54.5990 C.ar    1  UNL1       -0.0167
     34 C          -2.4310  102.0360   52.2580 C.ar    1  UNL1       -0.0039
     35 C          -2.8960  103.3370   52.2070 C.ar    1  UNL1       -0.0003
     36 C          -3.9290  103.7360   53.0260 C.ar    1  UNL1       -0.0000
     37 C          -4.5010  102.8330   53.8920 C.ar    1  UNL1       -0.0003
     38 C          -4.0390  101.5300   53.9450 C.ar    1  UNL1       -0.0039
     39 C          -2.2500   98.3120   55.3420 C.ar    1  UNL1       -0.0039
     40 C          -1.6910   98.0690   56.5850 C.ar    1  UNL1       -0.0003
     41 C          -0.7460   98.9270   57.1010 C.ar    1  UNL1       -0.0000
     42 C          -0.3570  100.0300   56.3740 C.ar    1  UNL1       -0.0003
     43 C          -0.9130  100.2770   55.1320 C.ar    1  UNL1       -0.0039
     44 C           2.9470   98.0630   54.2670 C.2     1  UNL1        0.3009
     45 C           3.4520  100.0780   55.5550 C.3     1  UNL1        0.1390
     46 C           3.7570  101.3960   54.8770 C.3     1  UNL1        0.1402
     47 C           1.9440  102.9310   55.4650 C.2     1  UNL1        0.3392
     48 C           0.1400  104.5840   55.8100 C.3     1  UNL1        0.1004
     49 C          -0.2900  105.7900   54.9970 C.3     1  UNL1        0.0432
     50 C          -1.1190  106.7360   55.8570 C.3     1  UNL1        0.0939
     51 C          -1.8700  104.8990   57.2490 C.3     1  UNL1        0.0939
     52 C          -1.0640  103.9020   56.4260 C.3     1  UNL1        0.0432
     53 C          -4.6220  105.4690   56.4270 C.ar    1  UNL1        0.0343
     54 C          -5.8520  105.6200   55.8150 C.ar    1  UNL1        0.0045
     55 C          -5.9730  106.4100   54.6990 C.ar    1  UNL1        0.0208
     56 C          -4.8440  107.0340   54.2200 C.ar    1  UNL1        0.1003
     57 C          -3.5300  106.1400   55.8720 C.ar    1  UNL1        0.1317
@<TRIPOS>BOND
     1     4     1    1
     2     4     6    1
     3     7     4    1
     4     7     3    1
     5     1     9    1
     6    10     3    1
     7    10     1    1
     8    10     2    1
     9    13    12    2
    10     7    13    1
    11    13     5   am
    12    16     5    1
    13    19    16    1
    14    21     8   ar
    15    21     2   ar
    16    23     8   ar
    17    25    23   ar
    18    25    14   ar
    19    25     2   ar
    20    27    23   ar
    21    27    17    1
    22    27    11   ar
    23    29    14   ar
    24    29    11   ar
    25    30    17    1
    26    31    30    1
    27    32    31    1
    28    33    31    1
    29    34    32   ar
    30    35    34   ar
    31    36    35   ar
    32    37    36   ar
    33    38    37   ar
    34    38    32   ar
    35    39    33   ar
    36    40    39   ar
    37    41    40   ar
    38    42    41   ar
    39    43    42   ar
    40    43    33   ar
    41    44    29    1
    42    44    15    2
    43    44    20   am
    44    45    20    1
    45    46    45    1
    46    46    22    1
    47    47    22   am
    48    47    18    2
    49    47    24   am
    50    48    24    1
    51    49    48    1
    52    50    49    1
    53    50    26    1
    54    51    26    1
    55    52    51    1
    56    52    48    1
    57    54    53   ar
    58    55    54   ar
    59    56    55   ar
    60    56    28   ar
    61    57    53   ar
    62    57    28   ar
    63    57    26    1
