@<TRIPOS>MOLECULE
7ARO_RVZ_A1201
 24 26 0 0 0
SMALL
GASTEIGER

@<TRIPOS>ATOM
      1 C           1.8830   91.8240   52.0660 C.ar    1  UNL1        0.0000
      2 C           2.8710   96.6870   53.4830 C.ar    1  UNL1        0.0926
      3 C           1.6110   99.7110   58.0840 C.ar    1  UNL1        0.1209
      4 C           1.1850  100.9450   57.7100 C.ar    1  UNL1        0.1209
      5 C           0.6480   98.1090   52.9080 C.ar    1  UNL1        0.1798
      6 C           0.6630   96.7670   52.6020 C.ar    1  UNL1        0.1038
      7 C          -0.5670   96.1450   51.9580 C.1     1  UNL1        0.1034
      8 C           1.8080   96.0320   52.8700 C.ar    1  UNL1        0.0241
      9 C           1.8530   94.5370   52.5710 C.ar    1  UNL1        0.0015
     10 C           2.3380   93.6540   53.5220 C.ar    1  UNL1        0.0000
     11 C           2.3840   92.2980   53.2630 C.ar    1  UNL1        0.0000
     12 C           1.3680   92.6980   51.1240 C.ar    1  UNL1        0.0000
     13 C           1.3670   94.0550   51.3680 C.ar    1  UNL1        0.0000
     14 C           4.1750   95.9540   53.8050 C.1     1  UNL1        0.1025
     15 C           2.7730   98.0410   53.7690 C.ar    1  UNL1        0.1182
     16 C           3.8830  100.4400   55.3220 C.3     1  UNL1        0.1290
     17 C           2.8280  100.3680   56.4340 C.ar    1  UNL1        0.1505
     18 N          -0.5570   98.8320   52.5580 N.pl3   1  UNL1       -0.1065
     19 N          -1.4610   95.6550   51.4730 N.1     1  UNL1       -0.1907
     20 N           5.1360   95.4110   54.0420 N.1     1  UNL1       -0.1908
     21 N           2.6360   99.3710   57.3200 N.ar    1  UNL1       -0.2267
     22 N           1.9270  101.3230   56.7000 N.ar    1  UNL1       -0.2267
     23 N           1.6850   98.7270   53.4510 N.ar    1  UNL1       -0.2199
     24 S           4.2230   98.8340   54.5260 S.3     1  UNL1       -0.0861
@<TRIPOS>BOND
     1     4     3   ar
     2     6     5   ar
     3     7     6    1
     4     8     6   ar
     5     8     2   ar
     6     9     8    1
     7    10     9   ar
     8    11     1   ar
     9    11    10   ar
    10    12     1   ar
    11    13    12   ar
    12    13     9   ar
    13    14     2    1
    14    15     2   ar
    15    17    16    1
    16    18     5    1
    17    19     7    3
    18    20    14    3
    19    21    17   ar
    20    21     3   ar
    21    22    17   ar
    22    22     4   ar
    23    23    15   ar
    24    23     5   ar
    25    24    15    1
    26    24    16    1
