@<TRIPOS>MOLECULE
8RLN_A1H1S_A1211
 37 39 0 0 0
SMALL
GASTEIGER

@<TRIPOS>ATOM
      1  N1        -1.0160   95.4790   51.2590 N.1   1211  A1H1211    -0.1907
      2  N3         4.4380   98.4010   57.4980 N.ar  1211  A1H1211    -0.2400
      3  C4         1.8360   93.7410   52.3350 C.ar  1211  A1H1211    -0.0150
      4  C5         2.2610   92.6650   53.1200 C.ar  1211  A1H1211    -0.0505
      5  C6         2.1690   91.3710   52.6610 C.ar  1211  A1H1211    -0.0196
      6  C7         1.6390   91.1110   51.4120 C.ar  1211  A1H1211     0.1169
      7  C8         1.1890   92.1650   50.6280 C.ar  1211  A1H1211    -0.0196
      8  C10        3.1680   95.4780   53.5410 C.ar  1211  A1H1211     0.0926
      9  C13        4.5840   98.9630   55.1010 C.3   1211  A1H1211     0.0577
     10  C15        3.6380   98.7810   58.5510 C.ar  1211  A1H1211     0.0455
     11  N          0.4810   98.4420   52.7650 N.pl3 1211  A1H1211    -0.3421
     12  C          1.3140   97.4440   53.0350 C.ar  1211  A1H1211     0.1356
     13  O          1.5880   89.8270   50.9530 O.3   1211  A1H1211    -0.5068
     14  C1         1.0970   96.1360   52.5520 C.ar  1211  A1H1211     0.1001
     15  C11        4.2380   94.5510   53.7270 C.1   1211  A1H1211     0.1025
     16  C12        3.3070   96.7880   54.0060 C.ar  1211  A1H1211     0.1174
     17  C14        4.0170   99.1120   56.4580 C.ar  1211  A1H1211     0.1173
     18  C16        2.7430   99.7260   58.1540 C.ar  1211  A1H1211     0.0213
     19  C2        -0.0980   95.8140   51.8380 C.1   1211  A1H1211     0.1032
     20  C3         2.0280   95.1320   52.8000 C.ar  1211  A1H1211     0.0227
     21  C9         1.2910   93.4600   51.0930 C.ar  1211  A1H1211    -0.0505
     22  N2         5.0620   93.7730   53.8270 N.1   1211  A1H1211    -0.1908
     23  N4         2.9940   99.9260   56.8280 N.ar  1211  A1H1211    -0.3476
     24  N5         2.4040   97.7440   53.7710 N.ar  1211  A1H1211    -0.2236
     25  S          4.7990   97.1640   54.8560 S.3   1211  A1H1211    -0.0968
     26  H2         2.6720   92.8470   54.1110 H     1211  A1H1211     0.0625
     27  H3         2.5140   90.5460   53.2840 H     1211  A1H1211     0.0654
     28  H5         0.7530   91.9920   49.6450 H     1211  A1H1211     0.0654
     29  H8         5.5310   99.4930   55.0160 H     1211  A1H1211     0.0459
     30  H7         3.9180   99.3900   54.3530 H     1211  A1H1211     0.0459
     31  H9         3.7590   98.3450   59.5410 H     1211  A1H1211     0.0845
     32  H          0.6530   99.3770   53.1200 H     1211  A1H1211     0.1437
     33  H1        -0.3450   98.2930   52.1950 H     1211  A1H1211     0.1437
     34  H4         1.2020   89.8240   50.0380 H     1211  A1H1211     0.2921
     35  H10        1.9680  100.2530   58.7080 H     1211  A1H1211     0.0823
     36  H6         0.9340   94.2780   50.4700 H     1211  A1H1211     0.0625
     37  H11        2.4940  100.5760   56.2310 H     1211  A1H1211     0.1665
@<TRIPOS>BOND
     1    28     7    1
     2    34    13    1
     3    36    21    1
     4     7    21   ar
     5     7     6   ar
     6    13     6    1
     7    21     3   ar
     8     1    19    3
     9     6     5   ar
    10    19    14    1
    11    33    11    1
    12     3    20    1
    13     3     4   ar
    14    14    20   ar
    15    14    12   ar
    16     5     4   ar
    17     5    27    1
    18    11    12    1
    19    11    32    1
    20    20     8   ar
    21    12    24   ar
    22     4    26    1
    23     8    15    1
    24     8    16   ar
    25    15    22    3
    26    24    16   ar
    27    16    25    1
    28    30     9    1
    29    25     9    1
    30    29     9    1
    31     9    17    1
    32    37    23    1
    33    17    23   ar
    34    17     2   ar
    35    23    18   ar
    36     2    10   ar
    37    18    10   ar
    38    18    35    1
    39    10    31    1
