6DXK_HJ4_A801
     RDKit          3D

 35 39  0  0  0  0  0  0  0  0999 V2000
   32.5690    8.5640    8.1660 C   0  0  0  0  0  0  0  0  0  0  0  0
   31.2360    7.8680    8.1750 C   0  0  0  0  0  0  0  0  0  0  0  0
   30.9530    7.0460    9.4440 C   0  0  0  0  0  0  0  0  0  0  0  0
   31.6580    7.5480   10.7060 C   0  0  0  0  0  0  0  0  0  0  0  0
   31.1540    7.3600   11.9880 C   0  0  0  0  0  0  0  0  0  0  0  0
   29.8670    6.5860   12.2470 C   0  0  0  0  0  0  0  0  0  0  0  0
   29.1750    2.8400   12.0290 C   0  0  0  0  0  0  0  0  0  0  0  0
   30.4470    2.2440   11.9950 C   0  0  0  0  0  0  0  0  0  0  0  0
   30.5990    0.8420   11.9430 N   0  0  0  0  0  0  0  0  0  0  0  0
   31.5310    0.1530   12.8550 C   0  0  0  0  0  0  0  0  0  0  0  0
   31.5560    3.0950   12.0530 C   0  0  0  0  0  0  0  0  0  0  0  0
   31.4080    4.4710   12.1260 C   0  0  0  0  0  0  0  0  0  0  0  0
   29.1450    6.9840   13.5750 C   0  0  0  0  0  0  0  0  0  0  0  0
   30.0690    7.0900   14.8170 C   0  0  1  0  0  0  0  0  0  0  0  0
   31.1580    8.1410   14.4190 C   0  0  0  0  0  0  0  0  0  0  0  0
   30.8150    8.2220   16.8150 C   0  0  0  0  0  0  0  0  0  0  0  0
   29.5150    7.7620   16.1130 C   0  0  1  0  0  0  0  0  0  0  0  0
   27.1170   11.1080   15.5960 C   0  0  2  0  0  0  0  0  0  0  0  0
   27.4570   11.8280   14.2850 C   0  0  0  0  0  0  0  0  0  0  0  0
   31.9560    7.8500   13.1820 C   0  0  0  0  0  0  0  0  0  0  0  0
   33.0220    8.9170   12.8860 C   0  0  0  0  0  0  0  0  0  0  0  0
   33.8790    8.4510   11.7020 C   0  0  0  0  0  0  0  0  0  0  0  0
   32.9500    8.2420   10.5300 C   0  0  0  0  0  0  0  0  0  0  0  0
   33.3480    8.7080    9.3120 C   0  0  0  0  0  0  0  0  0  0  0  0
   32.9890    9.0040    7.1180 O   0  0  0  0  0  0  0  0  0  0  0  0
   30.1340    5.0750   12.1400 C   0  0  0  0  0  0  0  0  0  0  0  0
   29.0330    4.2230   12.1020 C   0  0  0  0  0  0  0  0  0  0  0  0
   29.7740    0.0130   11.0580 C   0  0  0  0  0  0  0  0  0  0  0  0
   30.6200    5.6760   15.1690 C   0  0  0  0  0  0  0  0  0  0  0  0
   31.9240    8.2750   15.7370 C   0  0  0  0  0  0  0  0  0  0  0  0
   28.6250    8.9410   15.9260 C   0  0  0  0  0  0  0  0  0  0  0  0
   27.9180    9.8770   15.7470 C   0  0  0  0  0  0  0  0  0  0  0  0
   25.6530   10.7250   15.5160 C   0  0  0  0  0  0  0  0  0  0  0  0
   27.3100   12.0340   16.8000 C   0  0  0  0  0  0  0  0  0  0  0  0
   28.8330    6.8510   16.9800 O   0  0  0  0  0  0  0  0  0  0  0  0
  2  1  1  0
  3  2  1  0
  4  3  1  0
  5  4  2  0
  6  5  1  0
  8  7  2  0
  9  8  1  0
 10  9  1  0
 11  8  1  0
 12 11  2  0
 13  6  1  0
 14 13  1  0
 15 14  1  0
 17 14  1  0
 17 16  1  0
 18 19  1  6
 20 15  1  0
 20  5  1  0
 20 21  1  0
 22 21  1  0
 23  4  1  0
 23 22  1  0
 24  1  1  0
 24 23  2  0
 25  1  2  0
 26 12  1  0
  6 26  1  0
 27 26  2  0
 27  7  1  0
 28  9  1  0
 14 29  1  1
 15 30  1  0
 30 16  1  0
 31 17  1  0
 32 18  1  0
 32 31  3  0
 33 18  1  0
 34 18  1  0
 17 35  1  1
M  END
>  <_TriposChargeType>  (1) 
GASTEIGER

$$$$
