3CDA_8HI_B1
     RDKit          3D

 45 48  0  0  0  0  0  0  0  0999 V2000
   21.5040   11.0690   14.2950 N   0  0  0  0  0  0  0  0  0  0  0  0
   16.1010    9.5180   17.1310 C   0  0  0  0  0  0  0  0  0  0  0  0
   15.1060    9.1420   18.0400 C   0  0  0  0  0  0  0  0  0  0  0  0
   17.7990    8.8340   15.3700 C   0  0  0  0  0  0  0  0  0  0  0  0
   17.6450    8.6340   14.0160 C   0  0  0  0  0  0  0  0  0  0  0  0
   19.7370    9.3580   14.4240 C   0  0  0  0  0  0  0  0  0  0  0  0
   19.5460    9.5560   17.0310 C   0  0  0  0  0  0  0  0  0  0  0  0
   20.3390   10.3000   19.6060 C   0  0  0  0  0  0  0  0  0  0  0  0
   19.3590    8.6840   18.0940 C   0  0  0  0  0  0  0  0  0  0  0  0
   22.7450   11.5840   14.0510 C   0  0  0  0  0  0  0  0  0  0  0  0
   25.1970   12.8040   13.3390 C   0  0  0  0  0  0  0  0  0  0  0  0
   25.1740   11.5530   13.9670 C   0  0  0  0  0  0  0  0  0  0  0  0
   23.9620   10.9350   14.3080 C   0  0  0  0  0  0  0  0  0  0  0  0
   19.3360   10.3290   11.4810 C   0  0  0  0  0  0  0  0  0  0  0  0
   16.3820    8.1800   13.3020 C   0  0  0  0  0  0  0  0  0  0  0  0
   15.1430    6.1890   12.3550 C   0  0  0  0  0  0  0  0  0  0  0  0
   16.2100    2.6410   16.2480 O   0  0  0  0  0  0  0  0  0  0  0  0
   15.2280    2.3680   15.5830 C   0  0  0  0  0  0  0  0  0  0  0  0
   14.2200    1.7080   16.1350 O   0  0  0  0  0  0  0  0  0  0  0  0
   15.1500    2.7750   14.1340 C   0  0  0  0  0  0  0  0  0  0  0  0
   14.9610    4.2770   13.9890 C   0  0  0  0  0  0  0  0  0  0  0  0
   13.6610    4.6470   14.3800 O   0  0  0  0  0  0  0  0  0  0  0  0
   15.1480    4.6740   12.5300 C   0  0  0  0  0  0  0  0  0  0  0  0
   14.8750    6.4570   10.9970 O   0  0  0  0  0  0  0  0  0  0  0  0
   16.5060    6.7720   12.7370 C   0  0  0  0  0  0  0  0  0  0  0  0
   16.7280    8.5410   16.3620 C   0  0  0  0  0  0  0  0  0  0  0  0
   16.3650    7.2030   16.5070 C   0  0  0  0  0  0  0  0  0  0  0  0
   15.3750    6.8320   17.4030 C   0  0  0  0  0  0  0  0  0  0  0  0
   14.7460    7.7990   18.1710 C   0  0  0  0  0  0  0  0  0  0  0  0
   13.7910    7.4090   19.0340 F   0  0  0  0  0  0  0  0  0  0  0  0
   18.8390    8.9620   13.4600 N   0  0  0  0  0  0  0  0  0  0  0  0
   19.0510    8.9140   11.9800 C   0  0  0  0  0  0  0  0  0  0  0  0
   20.1180    7.9000   11.5730 C   0  0  0  0  0  0  0  0  0  0  0  0
   19.0850    9.2240   15.6450 C   0  0  0  0  0  0  0  0  0  0  0  0
   20.0980   10.8180   17.2780 C   0  0  0  0  0  0  0  0  0  0  0  0
   20.5130   11.1880   18.5550 C   0  0  0  0  0  0  0  0  0  0  0  0
   19.7670    9.0490   19.3740 C   0  0  0  0  0  0  0  0  0  0  0  0
   21.1730    9.7730   14.2700 C   0  0  0  0  0  0  0  0  0  0  0  0
   21.9320    8.9090   13.8550 O   0  0  0  0  0  0  0  0  0  0  0  0
   22.7730   12.8220   13.4080 C   0  0  0  0  0  0  0  0  0  0  0  0
   23.9810   13.4340   13.0690 C   0  0  0  0  0  0  0  0  0  0  0  0
   26.5830   13.5280   12.9490 S   0  0  1  0  0  0  0  0  0  0  0  0
   27.5850   12.5480   12.6480 O   0  0  0  0  0  0  0  0  0  0  0  0
   26.4430   14.3560   11.7920 O   0  0  0  0  0  0  0  0  0  0  0  0
   27.0480   14.4350   14.1830 N   0  0  0  0  0  0  0  0  0  0  0  0
  3  2  2  0
  5  4  2  0
  9  7  1  0
 10  1  1  0
 12 11  2  0
 13 12  1  0
 13 10  2  0
 15  5  1  0
 18 17  2  0
 19 18  1  0
 20 18  1  0
 21 20  1  0
 21 22  1  0
 23 21  1  0
 23 16  1  0
 16 24  1  0
 25 16  1  0
 25 15  1  0
 26  2  1  0
 26  4  1  0
 27 26  2  0
 28 27  1  0
 29 28  2  0
 29  3  1  0
 30 29  1  0
 31  6  1  0
 31  5  1  0
 32 31  1  0
 32 14  1  0
 33 32  1  0
 34  6  2  0
 34  4  1  0
 34  7  1  0
 35  7  2  0
 36 35  1  0
 36  8  2  0
 37  9  2  0
 37  8  1  0
 38  6  1  0
 38  1  1  0
 39 38  2  0
 40 10  1  0
 41 40  2  0
 41 11  1  0
 42 11  1  0
 43 42  2  0
 44 42  2  0
 42 45  1  1
M  END
>  <_TriposChargeType>  (1) 
GASTEIGER

$$$$
