STL560881
     RDKit          3D

 39 41  0  0  0  0  0  0  0  0999 V2000
   -3.4884   -3.2252    0.4298 O   0  0  0  0  0  0  0  0  0  0  0  0
   -3.6553   -1.9141    0.9546 C   0  0  0  0  0  0  0  0  0  0  0  0
   -2.3435   -1.1128    0.8712 C   0  0  0  0  0  0  0  0  0  0  0  0
   -1.8672   -0.9749   -0.5886 C   0  0  0  0  0  0  0  0  0  0  0  0
   -0.5253   -0.2180   -0.5986 C   0  0  0  0  0  0  0  0  0  0  0  0
   -0.7467    1.1775   -0.0197 C   0  0  0  0  0  0  0  0  0  0  0  0
    0.0910    2.2963   -0.5703 C   0  0  0  0  0  0  0  0  0  0  0  0
   -1.6844    1.3897    0.9222 C   0  0  0  0  0  0  0  0  0  0  0  0
   -2.5876    0.3086    1.4536 C   0  0  0  0  0  0  0  0  0  0  0  0
    0.4912   -1.0642    0.2230 C   0  0  0  0  0  0  0  0  0  0  0  0
    0.0355   -1.2121    1.5809 O   0  0  0  0  0  0  0  0  0  0  0  0
   -1.2374   -1.8557    1.6593 C   0  0  0  0  0  0  0  0  0  0  0  0
    1.9145   -0.5320    0.1890 C   0  0  0  0  0  0  0  0  0  0  0  0
    2.6726   -0.6492   -0.9889 C   0  0  0  0  0  0  0  0  0  0  0  0
    3.9793   -0.1609   -1.0470 C   0  0  0  0  0  0  0  0  0  0  0  0
    4.5379    0.4449    0.0706 C   0  0  0  0  0  0  0  0  0  0  0  0
    5.8166    0.9080   -0.0288 O   0  0  0  0  0  0  0  0  0  0  0  0
    3.8114    0.5717    1.2490 C   0  0  0  0  0  0  0  0  0  0  0  0
    2.5034    0.0836    1.3056 C   0  0  0  0  0  0  0  0  0  0  0  0
   -4.3537   -3.6681    0.4821 H   0  0  0  0  0  0  0  0  0  0  0  0
   -3.9900   -2.0032    1.9942 H   0  0  0  0  0  0  0  0  0  0  0  0
   -4.4481   -1.4221    0.3800 H   0  0  0  0  0  0  0  0  0  0  0  0
   -2.6151   -0.4434   -1.1923 H   0  0  0  0  0  0  0  0  0  0  0  0
   -1.7352   -1.9603   -1.0534 H   0  0  0  0  0  0  0  0  0  0  0  0
   -0.1951   -0.1297   -1.6412 H   0  0  0  0  0  0  0  0  0  0  0  0
   -0.1972    3.2658   -0.1498 H   0  0  0  0  0  0  0  0  0  0  0  0
   -0.0327    2.3606   -1.6562 H   0  0  0  0  0  0  0  0  0  0  0  0
    1.1502    2.1474   -0.3511 H   0  0  0  0  0  0  0  0  0  0  0  0
   -1.8371    2.3881    1.3257 H   0  0  0  0  0  0  0  0  0  0  0  0
   -2.5124    0.2854    2.5476 H   0  0  0  0  0  0  0  0  0  0  0  0
   -3.6133    0.6261    1.2232 H   0  0  0  0  0  0  0  0  0  0  0  0
    0.5403   -2.0774   -0.2022 H   0  0  0  0  0  0  0  0  0  0  0  0
   -1.1160   -2.8877    1.3080 H   0  0  0  0  0  0  0  0  0  0  0  0
   -1.5036   -1.9148    2.7208 H   0  0  0  0  0  0  0  0  0  0  0  0
    2.2492   -1.1245   -1.8707 H   0  0  0  0  0  0  0  0  0  0  0  0
    4.5592   -0.2550   -1.9604 H   0  0  0  0  0  0  0  0  0  0  0  0
    6.0710    1.2865    0.8286 H   0  0  0  0  0  0  0  0  0  0  0  0
    4.2370    1.0435    2.1284 H   0  0  0  0  0  0  0  0  0  0  0  0
    1.9370    0.1907    2.2289 H   0  0  0  0  0  0  0  0  0  0  0  0
  1  2  1  0
  2  3  1  0
  3  4  1  0
  4  5  1  0
  5  6  1  0
  6  7  1  0
  6  8  2  0
  8  9  1  0
  5 10  1  0
 10 11  1  0
 11 12  1  0
 10 13  1  0
 13 14  2  0
 14 15  1  0
 15 16  2  0
 16 17  1  0
 16 18  1  0
 18 19  2  0
 12  3  1  0
  9  3  1  0
 19 13  1  0
  1 20  1  0
  2 21  1  0
  2 22  1  0
  4 23  1  0
  4 24  1  0
  5 25  1  0
  7 26  1  0
  7 27  1  0
  7 28  1  0
  8 29  1  0
  9 30  1  0
  9 31  1  0
 10 32  1  0
 12 33  1  0
 12 34  1  0
 14 35  1  0
 15 36  1  0
 17 37  1  0
 18 38  1  0
 19 39  1  0
M  END
>  <mol_id>  (1) 
STL560881

>  <drugclip_rank>  (1) 
1

>  <conformer>  (1) 
0

>  <align_rmsd>  (1) 
0.731

$$$$
Z2180011388
     RDKit          3D

 36 38  0  0  0  0  0  0  0  0999 V2000
    1.2289   -0.4750   -1.7065 C   0  0  0  0  0  0  0  0  0  0  0  0
    2.0995    0.1026   -0.6226 C   0  0  0  0  0  0  0  0  0  0  0  0
    3.4917    0.1324   -0.8088 C   0  0  0  0  0  0  0  0  0  0  0  0
    4.3234    0.6574    0.1738 C   0  0  0  0  0  0  0  0  0  0  0  0
    5.6658    0.6607   -0.0655 O   0  0  0  0  0  0  0  0  0  0  0  0
    3.7984    1.1594    1.3562 C   0  0  0  0  0  0  0  0  0  0  0  0
    2.4168    1.1311    1.5546 C   0  0  0  0  0  0  0  0  0  0  0  0
    1.5494    0.6044    0.5785 C   0  0  0  0  0  0  0  0  0  0  0  0
    0.1046    0.5945    0.8433 C   0  0  0  0  0  0  0  0  0  0  0  0
   -0.6755    1.7303    0.5963 C   0  0  0  0  0  0  0  0  0  0  0  0
   -2.0474    1.7227    0.8564 C   0  0  0  0  0  0  0  0  0  0  0  0
   -0.5223   -0.5499    1.3579 C   0  0  0  0  0  0  0  0  0  0  0  0
   -1.9034   -0.5743    1.6138 C   0  0  0  0  0  0  0  0  0  0  0  0
   -2.6697    0.5799    1.3774 C   0  0  0  0  0  0  0  0  0  0  0  0
   -2.5176   -1.8241    2.1954 C   0  0  0  0  0  0  0  0  0  0  0  0
   -4.0396   -1.8615    2.0717 C   0  0  0  0  0  0  0  0  0  0  0  0
   -4.6425   -0.5349    2.5156 C   0  0  0  0  0  0  0  0  0  0  0  0
   -4.1602    0.5991    1.6130 C   0  0  0  0  0  0  0  0  0  0  0  0
    1.8144   -0.7298   -2.5964 H   0  0  0  0  0  0  0  0  0  0  0  0
    0.4688    0.2490   -2.0168 H   0  0  0  0  0  0  0  0  0  0  0  0
    0.7431   -1.3912   -1.3566 H   0  0  0  0  0  0  0  0  0  0  0  0
    3.9355   -0.2532   -1.7235 H   0  0  0  0  0  0  0  0  0  0  0  0
    6.1148    1.0532    0.7008 H   0  0  0  0  0  0  0  0  0  0  0  0
    4.4377    1.5712    2.1300 H   0  0  0  0  0  0  0  0  0  0  0  0
    2.0074    1.5216    2.4848 H   0  0  0  0  0  0  0  0  0  0  0  0
   -0.2147    2.6297    0.1933 H   0  0  0  0  0  0  0  0  0  0  0  0
   -2.6304    2.6172    0.6487 H   0  0  0  0  0  0  0  0  0  0  0  0
    0.0766   -1.4367    1.5606 H   0  0  0  0  0  0  0  0  0  0  0  0
   -2.1027   -2.7095    1.6991 H   0  0  0  0  0  0  0  0  0  0  0  0
   -2.2390   -1.8772    3.2554 H   0  0  0  0  0  0  0  0  0  0  0  0
   -4.3251   -2.0647    1.0317 H   0  0  0  0  0  0  0  0  0  0  0  0
   -4.4381   -2.6809    2.6803 H   0  0  0  0  0  0  0  0  0  0  0  0
   -4.3572   -0.3318    3.5557 H   0  0  0  0  0  0  0  0  0  0  0  0
   -5.7366   -0.5879    2.4870 H   0  0  0  0  0  0  0  0  0  0  0  0
   -4.4547    1.5553    2.0619 H   0  0  0  0  0  0  0  0  0  0  0  0
   -4.6586    0.5231    0.6384 H   0  0  0  0  0  0  0  0  0  0  0  0
  1  2  1  0
  2  3  2  0
  3  4  1  0
  4  5  1  0
  4  6  2  0
  6  7  1  0
  7  8  2  0
  8  9  1  0
  9 10  2  0
 10 11  1  0
  9 12  1  0
 12 13  2  0
 13 14  1  0
 13 15  1  0
 15 16  1  0
 16 17  1  0
 17 18  1  0
  8  2  1  0
 14 11  2  0
 18 14  1  0
  1 19  1  0
  1 20  1  0
  1 21  1  0
  3 22  1  0
  5 23  1  0
  6 24  1  0
  7 25  1  0
 10 26  1  0
 11 27  1  0
 12 28  1  0
 15 29  1  0
 15 30  1  0
 16 31  1  0
 16 32  1  0
 17 33  1  0
 17 34  1  0
 18 35  1  0
 18 36  1  0
M  END
>  <mol_id>  (2) 
Z2180011388

>  <drugclip_rank>  (2) 
2

>  <conformer>  (2) 
0

>  <align_rmsd>  (2) 
0.04

$$$$
Y042-2932
     RDKit          3D

 32 34  0  0  0  0  0  0  0  0999 V2000
   -1.8779   -1.7779    0.9905 C   0  0  0  0  0  0  0  0  0  0  0  0
   -2.6429   -2.1566   -0.1070 C   0  0  0  0  0  0  0  0  0  0  0  0
   -3.2568   -3.3734   -0.1598 O   0  0  0  0  0  0  0  0  0  0  0  0
   -2.8055   -1.3017   -1.1897 C   0  0  0  0  0  0  0  0  0  0  0  0
   -2.1862   -0.0514   -1.1815 C   0  0  0  0  0  0  0  0  0  0  0  0
   -1.4038    0.3448   -0.0870 C   0  0  0  0  0  0  0  0  0  0  0  0
   -1.2737   -0.5201    1.0048 C   0  0  0  0  0  0  0  0  0  0  0  0
   -0.7292    1.6887   -0.1009 C   0  0  0  0  0  0  0  0  0  0  0  0
    0.2671    1.8741    1.0520 C   0  0  1  0  0  0  0  0  0  0  0  0
   -0.2633    1.1647    2.3022 C   0  0  0  0  0  0  0  0  0  0  0  0
   -0.5240   -0.2291    2.1115 O   0  0  0  0  0  0  0  0  0  0  0  0
    1.7092    1.4844    0.7425 C   0  0  0  0  0  0  0  0  0  0  0  0
    2.7530    2.2770    1.2556 C   0  0  0  0  0  0  0  0  0  0  0  0
    4.0910    1.9573    1.0084 C   0  0  0  0  0  0  0  0  0  0  0  0
    4.3951    0.8354    0.2482 C   0  0  0  0  0  0  0  0  0  0  0  0
    5.6849    0.4843   -0.0186 O   0  0  0  0  0  0  0  0  0  0  0  0
    3.3851    0.0323   -0.2622 C   0  0  0  0  0  0  0  0  0  0  0  0
    2.0478    0.3530   -0.0144 C   0  0  0  0  0  0  0  0  0  0  0  0
   -1.7433   -2.4391    1.8400 H   0  0  0  0  0  0  0  0  0  0  0  0
   -3.0393   -3.8621    0.6512 H   0  0  0  0  0  0  0  0  0  0  0  0
   -3.4070   -1.6101   -2.0401 H   0  0  0  0  0  0  0  0  0  0  0  0
   -2.3103    0.6083   -2.0373 H   0  0  0  0  0  0  0  0  0  0  0  0
   -0.2436    1.8641   -1.0687 H   0  0  0  0  0  0  0  0  0  0  0  0
   -1.5229    2.4408    0.0041 H   0  0  0  0  0  0  0  0  0  0  0  0
    0.2873    2.9532    1.2627 H   0  0  0  0  0  0  0  0  0  0  0  0
    0.4539    1.2485    3.1270 H   0  0  0  0  0  0  0  0  0  0  0  0
   -1.1916    1.6405    2.6458 H   0  0  0  0  0  0  0  0  0  0  0  0
    2.5303    3.1567    1.8563 H   0  0  0  0  0  0  0  0  0  0  0  0
    4.8724    2.5902    1.4159 H   0  0  0  0  0  0  0  0  0  0  0  0
    6.2743    1.1269    0.4081 H   0  0  0  0  0  0  0  0  0  0  0  0
    3.6340   -0.8470   -0.8496 H   0  0  0  0  0  0  0  0  0  0  0  0
    1.2832   -0.3047   -0.4189 H   0  0  0  0  0  0  0  0  0  0  0  0
  1  2  2  0
  2  3  1  0
  2  4  1  0
  4  5  2  0
  5  6  1  0
  6  7  2  0
  6  8  1  0
  8  9  1  0
  9 10  1  0
 10 11  1  0
  9 12  1  0
 12 13  2  0
 13 14  1  0
 14 15  2  0
 15 16  1  0
 15 17  1  0
 17 18  2  0
  7  1  1  0
 11  7  1  0
 18 12  1  0
  1 19  1  0
  3 20  1  0
  4 21  1  0
  5 22  1  0
  8 23  1  0
  8 24  1  0
  9 25  1  1
 10 26  1  0
 10 27  1  0
 13 28  1  0
 14 29  1  0
 16 30  1  0
 17 31  1  0
 18 32  1  0
M  END
>  <mol_id>  (3) 
Y042-2932

>  <drugclip_rank>  (3) 
3

>  <conformer>  (3) 
2

>  <align_rmsd>  (3) 
0.456

$$$$
STK801893
     RDKit          3D

 32 34  0  0  0  0  0  0  0  0999 V2000
   -1.8779   -1.7779    0.9905 C   0  0  0  0  0  0  0  0  0  0  0  0
   -2.6429   -2.1566   -0.1070 C   0  0  0  0  0  0  0  0  0  0  0  0
   -3.2568   -3.3734   -0.1598 O   0  0  0  0  0  0  0  0  0  0  0  0
   -2.8055   -1.3017   -1.1897 C   0  0  0  0  0  0  0  0  0  0  0  0
   -2.1862   -0.0514   -1.1815 C   0  0  0  0  0  0  0  0  0  0  0  0
   -1.4038    0.3448   -0.0870 C   0  0  0  0  0  0  0  0  0  0  0  0
   -1.2737   -0.5201    1.0048 C   0  0  0  0  0  0  0  0  0  0  0  0
   -0.7292    1.6887   -0.1009 C   0  0  0  0  0  0  0  0  0  0  0  0
    0.2671    1.8741    1.0520 C   0  0  1  0  0  0  0  0  0  0  0  0
   -0.2633    1.1647    2.3022 C   0  0  0  0  0  0  0  0  0  0  0  0
   -0.5240   -0.2291    2.1115 O   0  0  0  0  0  0  0  0  0  0  0  0
    1.7092    1.4844    0.7425 C   0  0  0  0  0  0  0  0  0  0  0  0
    2.7530    2.2770    1.2556 C   0  0  0  0  0  0  0  0  0  0  0  0
    4.0910    1.9573    1.0084 C   0  0  0  0  0  0  0  0  0  0  0  0
    4.3951    0.8354    0.2482 C   0  0  0  0  0  0  0  0  0  0  0  0
    5.6849    0.4843   -0.0186 O   0  0  0  0  0  0  0  0  0  0  0  0
    3.3851    0.0323   -0.2622 C   0  0  0  0  0  0  0  0  0  0  0  0
    2.0478    0.3530   -0.0144 C   0  0  0  0  0  0  0  0  0  0  0  0
   -1.7433   -2.4391    1.8400 H   0  0  0  0  0  0  0  0  0  0  0  0
   -3.0393   -3.8621    0.6512 H   0  0  0  0  0  0  0  0  0  0  0  0
   -3.4070   -1.6101   -2.0401 H   0  0  0  0  0  0  0  0  0  0  0  0
   -2.3103    0.6083   -2.0373 H   0  0  0  0  0  0  0  0  0  0  0  0
   -0.2436    1.8641   -1.0687 H   0  0  0  0  0  0  0  0  0  0  0  0
   -1.5229    2.4408    0.0041 H   0  0  0  0  0  0  0  0  0  0  0  0
    0.2873    2.9532    1.2627 H   0  0  0  0  0  0  0  0  0  0  0  0
    0.4539    1.2485    3.1270 H   0  0  0  0  0  0  0  0  0  0  0  0
   -1.1916    1.6405    2.6458 H   0  0  0  0  0  0  0  0  0  0  0  0
    2.5303    3.1567    1.8563 H   0  0  0  0  0  0  0  0  0  0  0  0
    4.8724    2.5902    1.4159 H   0  0  0  0  0  0  0  0  0  0  0  0
    6.2743    1.1269    0.4081 H   0  0  0  0  0  0  0  0  0  0  0  0
    3.6340   -0.8470   -0.8496 H   0  0  0  0  0  0  0  0  0  0  0  0
    1.2832   -0.3047   -0.4189 H   0  0  0  0  0  0  0  0  0  0  0  0
  1  2  2  0
  2  3  1  0
  2  4  1  0
  4  5  2  0
  5  6  1  0
  6  7  2  0
  6  8  1  0
  8  9  1  0
  9 10  1  0
 10 11  1  0
  9 12  1  0
 12 13  2  0
 13 14  1  0
 14 15  2  0
 15 16  1  0
 15 17  1  0
 17 18  2  0
  7  1  1  0
 11  7  1  0
 18 12  1  0
  1 19  1  0
  3 20  1  0
  4 21  1  0
  5 22  1  0
  8 23  1  0
  8 24  1  0
  9 25  1  1
 10 26  1  0
 10 27  1  0
 13 28  1  0
 14 29  1  0
 16 30  1  0
 17 31  1  0
 18 32  1  0
M  END
>  <mol_id>  (4) 
STK801893

>  <drugclip_rank>  (4) 
4

>  <conformer>  (4) 
2

>  <align_rmsd>  (4) 
0.456

$$$$
OSSL_331474
     RDKit          3D

 32 34  0  0  0  0  0  0  0  0999 V2000
   -1.8779   -1.7779    0.9905 C   0  0  0  0  0  0  0  0  0  0  0  0
   -2.6429   -2.1566   -0.1070 C   0  0  0  0  0  0  0  0  0  0  0  0
   -3.2568   -3.3734   -0.1598 O   0  0  0  0  0  0  0  0  0  0  0  0
   -2.8055   -1.3017   -1.1897 C   0  0  0  0  0  0  0  0  0  0  0  0
   -2.1862   -0.0514   -1.1815 C   0  0  0  0  0  0  0  0  0  0  0  0
   -1.4038    0.3448   -0.0870 C   0  0  0  0  0  0  0  0  0  0  0  0
   -1.2737   -0.5201    1.0048 C   0  0  0  0  0  0  0  0  0  0  0  0
   -0.7292    1.6887   -0.1009 C   0  0  0  0  0  0  0  0  0  0  0  0
    0.2671    1.8741    1.0520 C   0  0  1  0  0  0  0  0  0  0  0  0
   -0.2633    1.1647    2.3022 C   0  0  0  0  0  0  0  0  0  0  0  0
   -0.5240   -0.2291    2.1115 O   0  0  0  0  0  0  0  0  0  0  0  0
    1.7092    1.4844    0.7425 C   0  0  0  0  0  0  0  0  0  0  0  0
    2.7530    2.2770    1.2556 C   0  0  0  0  0  0  0  0  0  0  0  0
    4.0910    1.9573    1.0084 C   0  0  0  0  0  0  0  0  0  0  0  0
    4.3951    0.8354    0.2482 C   0  0  0  0  0  0  0  0  0  0  0  0
    5.6849    0.4843   -0.0186 O   0  0  0  0  0  0  0  0  0  0  0  0
    3.3851    0.0323   -0.2622 C   0  0  0  0  0  0  0  0  0  0  0  0
    2.0478    0.3530   -0.0144 C   0  0  0  0  0  0  0  0  0  0  0  0
   -1.7433   -2.4391    1.8400 H   0  0  0  0  0  0  0  0  0  0  0  0
   -3.0393   -3.8621    0.6512 H   0  0  0  0  0  0  0  0  0  0  0  0
   -3.4070   -1.6101   -2.0401 H   0  0  0  0  0  0  0  0  0  0  0  0
   -2.3103    0.6083   -2.0373 H   0  0  0  0  0  0  0  0  0  0  0  0
   -0.2436    1.8641   -1.0687 H   0  0  0  0  0  0  0  0  0  0  0  0
   -1.5229    2.4408    0.0041 H   0  0  0  0  0  0  0  0  0  0  0  0
    0.2873    2.9532    1.2627 H   0  0  0  0  0  0  0  0  0  0  0  0
    0.4539    1.2485    3.1270 H   0  0  0  0  0  0  0  0  0  0  0  0
   -1.1916    1.6405    2.6458 H   0  0  0  0  0  0  0  0  0  0  0  0
    2.5303    3.1567    1.8563 H   0  0  0  0  0  0  0  0  0  0  0  0
    4.8724    2.5902    1.4159 H   0  0  0  0  0  0  0  0  0  0  0  0
    6.2743    1.1269    0.4081 H   0  0  0  0  0  0  0  0  0  0  0  0
    3.6340   -0.8470   -0.8496 H   0  0  0  0  0  0  0  0  0  0  0  0
    1.2832   -0.3047   -0.4189 H   0  0  0  0  0  0  0  0  0  0  0  0
  1  2  2  0
  2  3  1  0
  2  4  1  0
  4  5  2  0
  5  6  1  0
  6  7  2  0
  6  8  1  0
  8  9  1  0
  9 10  1  0
 10 11  1  0
  9 12  1  0
 12 13  2  0
 13 14  1  0
 14 15  2  0
 15 16  1  0
 15 17  1  0
 17 18  2  0
  7  1  1  0
 11  7  1  0
 18 12  1  0
  1 19  1  0
  3 20  1  0
  4 21  1  0
  5 22  1  0
  8 23  1  0
  8 24  1  0
  9 25  1  1
 10 26  1  0
 10 27  1  0
 13 28  1  0
 14 29  1  0
 16 30  1  0
 17 31  1  0
 18 32  1  0
M  END
>  <mol_id>  (5) 
OSSL_331474

>  <drugclip_rank>  (5) 
5

>  <conformer>  (5) 
2

>  <align_rmsd>  (5) 
0.456

$$$$
STL372900
     RDKit          3D

 42 44  0  0  0  0  0  0  0  0999 V2000
   -0.1185   -0.8122    2.9769 C   0  0  0  0  0  0  0  0  0  0  0  0
   -0.5591   -0.6840    1.5284 C   0  0  0  0  0  0  0  0  0  0  0  0
   -2.1007   -0.5163    1.3003 C   0  0  0  0  0  0  0  0  0  0  0  0
   -2.7360    0.7585    1.8927 C   0  0  0  0  0  0  0  0  0  0  0  0
   -2.9816   -1.6862    1.7903 C   0  0  0  0  0  0  0  0  0  0  0  0
   -1.9122   -0.4763   -0.2369 C   0  0  0  0  0  0  0  0  0  0  0  0
   -1.1553   -1.7884   -0.5398 C   0  0  0  0  0  0  0  0  0  0  0  0
   -0.2482   -1.9555    0.6906 C   0  0  0  0  0  0  0  0  0  0  0  0
   -0.9052    0.6782   -0.4567 C   0  0  0  0  0  0  0  0  0  0  0  0
    0.0302    0.5713    0.7799 C   0  0  0  0  0  0  0  0  0  0  0  0
    1.5282    0.5855    0.5320 C   0  0  0  0  0  0  0  0  0  0  0  0
    2.3716    1.1139    1.5295 C   0  0  0  0  0  0  0  0  0  0  0  0
    3.7686    1.1626    1.3784 C   0  0  0  0  0  0  0  0  0  0  0  0
    4.6091    1.7379    2.4804 C   0  0  0  0  0  0  0  0  0  0  0  0
    4.3213    0.6672    0.1956 C   0  0  0  0  0  0  0  0  0  0  0  0
    5.6637    0.6650   -0.0555 O   0  0  0  0  0  0  0  0  0  0  0  0
    3.5100    0.1391   -0.8028 C   0  0  0  0  0  0  0  0  0  0  0  0
    2.1243    0.0980   -0.6366 C   0  0  0  0  0  0  0  0  0  0  0  0
   -0.6331   -1.6380    3.4786 H   0  0  0  0  0  0  0  0  0  0  0  0
   -0.3294    0.1029    3.5395 H   0  0  0  0  0  0  0  0  0  0  0  0
    0.9556   -1.0111    3.0483 H   0  0  0  0  0  0  0  0  0  0  0  0
   -2.2472    1.6920    1.6093 H   0  0  0  0  0  0  0  0  0  0  0  0
   -3.7796    0.8483    1.5684 H   0  0  0  0  0  0  0  0  0  0  0  0
   -2.7316    0.7184    2.9879 H   0  0  0  0  0  0  0  0  0  0  0  0
   -3.0219   -1.7081    2.8853 H   0  0  0  0  0  0  0  0  0  0  0  0
   -4.0081   -1.5678    1.4236 H   0  0  0  0  0  0  0  0  0  0  0  0
   -2.6499   -2.6754    1.4691 H   0  0  0  0  0  0  0  0  0  0  0  0
   -2.8281   -0.3627   -0.8218 H   0  0  0  0  0  0  0  0  0  0  0  0
   -0.5786   -1.7347   -1.4688 H   0  0  0  0  0  0  0  0  0  0  0  0
   -1.8430   -2.6355   -0.6327 H   0  0  0  0  0  0  0  0  0  0  0  0
   -0.5024   -2.8728    1.2337 H   0  0  0  0  0  0  0  0  0  0  0  0
    0.8045   -2.0527    0.4142 H   0  0  0  0  0  0  0  0  0  0  0  0
   -0.4062    0.6022   -1.4258 H   0  0  0  0  0  0  0  0  0  0  0  0
   -1.4224    1.6449   -0.4544 H   0  0  0  0  0  0  0  0  0  0  0  0
   -0.1632    1.4652    1.3893 H   0  0  0  0  0  0  0  0  0  0  0  0
    1.9262    1.4973    2.4470 H   0  0  0  0  0  0  0  0  0  0  0  0
    5.3078    0.9839    2.8568 H   0  0  0  0  0  0  0  0  0  0  0  0
    3.9970    2.0713    3.3251 H   0  0  0  0  0  0  0  0  0  0  0  0
    5.1692    2.6051    2.1161 H   0  0  0  0  0  0  0  0  0  0  0  0
    6.1305    1.0539    0.6993 H   0  0  0  0  0  0  0  0  0  0  0  0
    3.9580   -0.2463   -1.7148 H   0  0  0  0  0  0  0  0  0  0  0  0
    1.5309   -0.3376   -1.4348 H   0  0  0  0  0  0  0  0  0  0  0  0
  1  2  1  0
  2  3  1  0
  3  4  1  0
  3  5  1  0
  3  6  1  0
  6  7  1  0
  7  8  1  0
  6  9  1  0
  9 10  1  0
 10 11  1  0
 11 12  2  0
 12 13  1  0
 13 14  1  0
 13 15  2  0
 15 16  1  0
 15 17  1  0
 17 18  2  0
 10  2  1  0
  8  2  1  0
 18 11  1  0
  1 19  1  0
  1 20  1  0
  1 21  1  0
  4 22  1  0
  4 23  1  0
  4 24  1  0
  5 25  1  0
  5 26  1  0
  5 27  1  0
  6 28  1  0
  7 29  1  0
  7 30  1  0
  8 31  1  0
  8 32  1  0
  9 33  1  0
  9 34  1  0
 10 35  1  0
 12 36  1  0
 14 37  1  0
 14 38  1  0
 14 39  1  0
 16 40  1  0
 17 41  1  0
 18 42  1  0
M  END
>  <mol_id>  (6) 
STL372900

>  <drugclip_rank>  (6) 
6

>  <conformer>  (6) 
3

>  <align_rmsd>  (6) 
0.032

$$$$
Z2235439668
     RDKit          3D

 35 37  0  0  0  0  0  0  0  0999 V2000
    1.2279   -0.4718   -1.7078 C   0  0  0  0  0  0  0  0  0  0  0  0
    2.0999    0.1016   -0.6230 C   0  0  0  0  0  0  0  0  0  0  0  0
    3.4917    0.1335   -0.8097 C   0  0  0  0  0  0  0  0  0  0  0  0
    4.3232    0.6571    0.1739 C   0  0  0  0  0  0  0  0  0  0  0  0
    5.6656    0.6606   -0.0653 O   0  0  0  0  0  0  0  0  0  0  0  0
    3.7985    1.1585    1.3570 C   0  0  0  0  0  0  0  0  0  0  0  0
    2.4170    1.1322    1.5547 C   0  0  0  0  0  0  0  0  0  0  0  0
    1.5498    0.6046    0.5782 C   0  0  0  0  0  0  0  0  0  0  0  0
    0.0987    0.6075    0.8372 C   0  0  0  0  0  0  0  0  0  0  0  0
   -0.6344    1.7416    0.4571 C   0  0  0  0  0  0  0  0  0  0  0  0
   -2.0082    1.8175    0.6710 C   0  0  0  0  0  0  0  0  0  0  0  0
   -0.5795   -0.4732    1.4554 C   0  0  0  0  0  0  0  0  0  0  0  0
    0.1755   -1.7131    1.8835 C   0  0  0  0  0  0  0  0  0  0  0  0
   -1.9917   -0.4014    1.6757 C   0  0  0  0  0  0  0  0  0  0  0  0
   -2.6961    0.7610    1.2743 C   0  0  0  0  0  0  0  0  0  0  0  0
   -2.7452   -1.4361    2.2796 C   0  0  0  0  0  0  0  0  0  0  0  0
   -4.1244   -1.3287    2.4780 C   0  0  0  0  0  0  0  0  0  0  0  0
   -4.7935   -0.1812    2.0778 C   0  0  0  0  0  0  0  0  0  0  0  0
   -4.0828    0.8568    1.4796 C   0  0  0  0  0  0  0  0  0  0  0  0
    0.5258    0.2837   -2.0742 H   0  0  0  0  0  0  0  0  0  0  0  0
    1.8228   -0.8073   -2.5642 H   0  0  0  0  0  0  0  0  0  0  0  0
    0.6736   -1.3388   -1.3352 H   0  0  0  0  0  0  0  0  0  0  0  0
    3.9358   -0.2501   -1.7251 H   0  0  0  0  0  0  0  0  0  0  0  0
    6.1149    1.0531    0.7008 H   0  0  0  0  0  0  0  0  0  0  0  0
    4.4381    1.5702    2.1306 H   0  0  0  0  0  0  0  0  0  0  0  0
    2.0068    1.5256    2.4833 H   0  0  0  0  0  0  0  0  0  0  0  0
   -0.1278    2.5805   -0.0176 H   0  0  0  0  0  0  0  0  0  0  0  0
   -2.5364    2.7154    0.3581 H   0  0  0  0  0  0  0  0  0  0  0  0
   -0.2046   -2.5872    1.3440 H   0  0  0  0  0  0  0  0  0  0  0  0
    0.0616   -1.8680    2.9617 H   0  0  0  0  0  0  0  0  0  0  0  0
    1.2489   -1.6628    1.6866 H   0  0  0  0  0  0  0  0  0  0  0  0
   -2.2628   -2.3535    2.6080 H   0  0  0  0  0  0  0  0  0  0  0  0
   -4.6704   -2.1441    2.9451 H   0  0  0  0  0  0  0  0  0  0  0  0
   -5.8657   -0.0918    2.2292 H   0  0  0  0  0  0  0  0  0  0  0  0
   -4.6240    1.7490    1.1715 H   0  0  0  0  0  0  0  0  0  0  0  0
  1  2  1  0
  2  3  2  0
  3  4  1  0
  4  5  1  0
  4  6  2  0
  6  7  1  0
  7  8  2  0
  8  9  1  0
  9 10  2  0
 10 11  1  0
  9 12  1  0
 12 13  1  0
 12 14  2  0
 14 15  1  0
 14 16  1  0
 16 17  2  0
 17 18  1  0
 18 19  2  0
  8  2  1  0
 15 11  2  0
 19 15  1  0
  1 20  1  0
  1 21  1  0
  1 22  1  0
  3 23  1  0
  5 24  1  0
  6 25  1  0
  7 26  1  0
 10 27  1  0
 11 28  1  0
 13 29  1  0
 13 30  1  0
 13 31  1  0
 16 32  1  0
 17 33  1  0
 18 34  1  0
 19 35  1  0
M  END
>  <mol_id>  (7) 
Z2235439668

>  <drugclip_rank>  (7) 
7

>  <conformer>  (7) 
1

>  <align_rmsd>  (7) 
0.04

$$$$
OSSM_280958
     RDKit          3D

 41 44  0  0  0  0  0  0  0  0999 V2000
   -3.3165   -1.8447    2.5515 C   0  0  0  0  0  0  0  0  0  0  0  0
   -4.2095   -1.2166    3.4259 C   0  0  0  0  0  0  0  0  0  0  0  0
   -4.2819    0.1803    3.4888 C   0  0  0  0  0  0  0  0  0  0  0  0
   -3.4669    0.9645    2.6741 C   0  0  0  0  0  0  0  0  0  0  0  0
   -2.5798    0.3275    1.8135 C   0  0  0  0  0  0  0  0  0  0  0  0
   -1.6242    0.9390    0.8116 C   0  0  0  0  0  0  0  0  0  0  0  0
   -2.4518    1.3969   -0.4071 C   0  0  0  0  0  0  0  0  0  0  0  0
   -0.8665    2.1449    1.3851 C   0  0  0  0  0  0  0  0  0  0  0  0
   -2.4893   -1.0686    1.7520 C   0  0  0  0  0  0  0  0  0  0  0  0
   -1.5456   -1.5172    0.8045 N   0  0  0  0  0  0  0  0  0  0  0  0
   -0.8862   -2.7834    1.0897 C   0  0  0  0  0  0  0  0  0  0  0  0
   -0.6922   -0.3268    0.5313 C   0  0  0  0  0  0  0  0  0  0  0  0
    0.4002   -0.3291    1.4851 O   0  0  0  0  0  0  0  0  0  0  0  0
    1.6620   -0.0547    1.0391 C   0  0  0  0  0  0  0  0  0  0  0  0
    2.0147   -0.0197   -0.3119 C   0  0  0  0  0  0  0  0  0  0  0  0
    1.0109   -0.3024   -1.3228 C   0  0  0  0  0  0  0  0  0  0  0  0
   -0.2528   -0.4491   -0.9137 C   0  0  0  0  0  0  0  0  0  0  0  0
    3.3372    0.2571   -0.6704 C   0  0  0  0  0  0  0  0  0  0  0  0
    4.2869    0.4945    0.3193 C   0  0  0  0  0  0  0  0  0  0  0  0
    5.5634    0.7623   -0.0787 O   0  0  0  0  0  0  0  0  0  0  0  0
    3.9430    0.4545    1.6667 C   0  0  0  0  0  0  0  0  0  0  0  0
    2.6241    0.1743    2.0253 C   0  0  0  0  0  0  0  0  0  0  0  0
   -3.2889   -2.9274    2.5050 H   0  0  0  0  0  0  0  0  0  0  0  0
   -4.8580   -1.8191    4.0569 H   0  0  0  0  0  0  0  0  0  0  0  0
   -4.9847    0.6541    4.1695 H   0  0  0  0  0  0  0  0  0  0  0  0
   -3.5366    2.0466    2.7111 H   0  0  0  0  0  0  0  0  0  0  0  0
   -3.0210    0.5725   -0.8526 H   0  0  0  0  0  0  0  0  0  0  0  0
   -1.8102    1.8277   -1.1838 H   0  0  0  0  0  0  0  0  0  0  0  0
   -3.1788    2.1685   -0.1253 H   0  0  0  0  0  0  0  0  0  0  0  0
   -0.3944    1.9174    2.3474 H   0  0  0  0  0  0  0  0  0  0  0  0
   -0.0895    2.4836    0.6914 H   0  0  0  0  0  0  0  0  0  0  0  0
   -1.5391    2.9929    1.5598 H   0  0  0  0  0  0  0  0  0  0  0  0
   -0.1063   -2.9898    0.3489 H   0  0  0  0  0  0  0  0  0  0  0  0
   -1.5987   -3.6131    1.0309 H   0  0  0  0  0  0  0  0  0  0  0  0
   -0.4207   -2.7888    2.0821 H   0  0  0  0  0  0  0  0  0  0  0  0
    1.2961   -0.3967   -2.3637 H   0  0  0  0  0  0  0  0  0  0  0  0
   -1.0237   -0.6800   -1.6427 H   0  0  0  0  0  0  0  0  0  0  0  0
    3.6383    0.2869   -1.7138 H   0  0  0  0  0  0  0  0  0  0  0  0
    6.1133    0.9006    0.7101 H   0  0  0  0  0  0  0  0  0  0  0  0
    4.6783    0.6341    2.4444 H   0  0  0  0  0  0  0  0  0  0  0  0
    2.3407    0.1359    3.0740 H   0  0  0  0  0  0  0  0  0  0  0  0
  1  2  2  0
  2  3  1  0
  3  4  2  0
  4  5  1  0
  5  6  1  0
  6  7  1  0
  6  8  1  0
  5  9  2  0
  9 10  1  0
 10 11  1  0
 10 12  1  0
 12 13  1  0
 13 14  1  0
 14 15  2  0
 15 16  1  0
 16 17  2  0
 15 18  1  0
 18 19  2  0
 19 20  1  0
 19 21  1  0
 21 22  2  0
  9  1  1  0
 12  6  1  0
 17 12  1  0
 22 14  1  0
  1 23  1  0
  2 24  1  0
  3 25  1  0
  4 26  1  0
  7 27  1  0
  7 28  1  0
  7 29  1  0
  8 30  1  0
  8 31  1  0
  8 32  1  0
 11 33  1  0
 11 34  1  0
 11 35  1  0
 16 36  1  0
 17 37  1  0
 18 38  1  0
 20 39  1  0
 21 40  1  0
 22 41  1  0
M  END
>  <mol_id>  (8) 
OSSM_280958

>  <drugclip_rank>  (8) 
8

>  <conformer>  (8) 
2

>  <align_rmsd>  (8) 
0.403

$$$$
0387-0102
     RDKit          3D

 41 44  0  0  0  0  0  0  0  0999 V2000
   -3.3165   -1.8447    2.5515 C   0  0  0  0  0  0  0  0  0  0  0  0
   -4.2095   -1.2166    3.4259 C   0  0  0  0  0  0  0  0  0  0  0  0
   -4.2819    0.1803    3.4888 C   0  0  0  0  0  0  0  0  0  0  0  0
   -3.4669    0.9645    2.6741 C   0  0  0  0  0  0  0  0  0  0  0  0
   -2.5798    0.3275    1.8135 C   0  0  0  0  0  0  0  0  0  0  0  0
   -1.6242    0.9390    0.8116 C   0  0  0  0  0  0  0  0  0  0  0  0
   -2.4518    1.3969   -0.4071 C   0  0  0  0  0  0  0  0  0  0  0  0
   -0.8665    2.1449    1.3851 C   0  0  0  0  0  0  0  0  0  0  0  0
   -2.4893   -1.0686    1.7520 C   0  0  0  0  0  0  0  0  0  0  0  0
   -1.5456   -1.5172    0.8045 N   0  0  0  0  0  0  0  0  0  0  0  0
   -0.8862   -2.7834    1.0897 C   0  0  0  0  0  0  0  0  0  0  0  0
   -0.6922   -0.3268    0.5313 C   0  0  0  0  0  0  0  0  0  0  0  0
    0.4002   -0.3291    1.4851 O   0  0  0  0  0  0  0  0  0  0  0  0
    1.6620   -0.0547    1.0391 C   0  0  0  0  0  0  0  0  0  0  0  0
    2.0147   -0.0197   -0.3119 C   0  0  0  0  0  0  0  0  0  0  0  0
    1.0109   -0.3024   -1.3228 C   0  0  0  0  0  0  0  0  0  0  0  0
   -0.2528   -0.4491   -0.9137 C   0  0  0  0  0  0  0  0  0  0  0  0
    3.3372    0.2571   -0.6704 C   0  0  0  0  0  0  0  0  0  0  0  0
    4.2869    0.4945    0.3193 C   0  0  0  0  0  0  0  0  0  0  0  0
    5.5634    0.7623   -0.0787 O   0  0  0  0  0  0  0  0  0  0  0  0
    3.9430    0.4545    1.6667 C   0  0  0  0  0  0  0  0  0  0  0  0
    2.6241    0.1743    2.0253 C   0  0  0  0  0  0  0  0  0  0  0  0
   -3.2889   -2.9274    2.5050 H   0  0  0  0  0  0  0  0  0  0  0  0
   -4.8580   -1.8191    4.0569 H   0  0  0  0  0  0  0  0  0  0  0  0
   -4.9847    0.6541    4.1695 H   0  0  0  0  0  0  0  0  0  0  0  0
   -3.5366    2.0466    2.7111 H   0  0  0  0  0  0  0  0  0  0  0  0
   -3.0210    0.5725   -0.8526 H   0  0  0  0  0  0  0  0  0  0  0  0
   -1.8102    1.8277   -1.1838 H   0  0  0  0  0  0  0  0  0  0  0  0
   -3.1788    2.1685   -0.1253 H   0  0  0  0  0  0  0  0  0  0  0  0
   -0.3944    1.9174    2.3474 H   0  0  0  0  0  0  0  0  0  0  0  0
   -0.0895    2.4836    0.6914 H   0  0  0  0  0  0  0  0  0  0  0  0
   -1.5391    2.9929    1.5598 H   0  0  0  0  0  0  0  0  0  0  0  0
   -0.1063   -2.9898    0.3489 H   0  0  0  0  0  0  0  0  0  0  0  0
   -1.5987   -3.6131    1.0309 H   0  0  0  0  0  0  0  0  0  0  0  0
   -0.4207   -2.7888    2.0821 H   0  0  0  0  0  0  0  0  0  0  0  0
    1.2961   -0.3967   -2.3637 H   0  0  0  0  0  0  0  0  0  0  0  0
   -1.0237   -0.6800   -1.6427 H   0  0  0  0  0  0  0  0  0  0  0  0
    3.6383    0.2869   -1.7138 H   0  0  0  0  0  0  0  0  0  0  0  0
    6.1133    0.9006    0.7101 H   0  0  0  0  0  0  0  0  0  0  0  0
    4.6783    0.6341    2.4444 H   0  0  0  0  0  0  0  0  0  0  0  0
    2.3407    0.1359    3.0740 H   0  0  0  0  0  0  0  0  0  0  0  0
  1  2  2  0
  2  3  1  0
  3  4  2  0
  4  5  1  0
  5  6  1  0
  6  7  1  0
  6  8  1  0
  5  9  2  0
  9 10  1  0
 10 11  1  0
 10 12  1  0
 12 13  1  0
 13 14  1  0
 14 15  2  0
 15 16  1  0
 16 17  2  0
 15 18  1  0
 18 19  2  0
 19 20  1  0
 19 21  1  0
 21 22  2  0
  9  1  1  0
 12  6  1  0
 17 12  1  0
 22 14  1  0
  1 23  1  0
  2 24  1  0
  3 25  1  0
  4 26  1  0
  7 27  1  0
  7 28  1  0
  7 29  1  0
  8 30  1  0
  8 31  1  0
  8 32  1  0
 11 33  1  0
 11 34  1  0
 11 35  1  0
 16 36  1  0
 17 37  1  0
 18 38  1  0
 20 39  1  0
 21 40  1  0
 22 41  1  0
M  END
>  <mol_id>  (9) 
0387-0102

>  <drugclip_rank>  (9) 
9

>  <conformer>  (9) 
2

>  <align_rmsd>  (9) 
0.403

$$$$
Z8339566336
     RDKit          3D

 30 31  0  0  0  0  0  0  0  0999 V2000
   -2.6604   -1.2278   -2.8593 C   0  0  0  0  0  0  0  0  0  0  0  0
   -1.4849   -2.1237   -2.4985 C   0  0  0  0  0  0  0  0  0  0  0  0
   -0.9897   -1.8649   -1.0973 C   0  0  0  0  0  0  0  0  0  0  0  0
    0.0586   -0.9533   -0.8862 C   0  0  0  0  0  0  0  0  0  0  0  0
    0.5339   -0.6696    0.4054 C   0  0  0  0  0  0  0  0  0  0  0  0
   -0.0610   -1.3221    1.4950 C   0  0  0  0  0  0  0  0  0  0  0  0
   -1.1090   -2.2246    1.3027 C   0  0  0  0  0  0  0  0  0  0  0  0
   -1.5671   -2.4869    0.0133 C   0  0  0  0  0  0  0  0  0  0  0  0
   -2.5974   -3.3628   -0.1822 O   0  0  0  0  0  0  0  0  0  0  0  0
    1.6405    0.2778    0.6044 C   0  0  0  0  0  0  0  0  0  0  0  0
    2.9459   -0.1162    0.2573 C   0  0  0  0  0  0  0  0  0  0  0  0
    4.0229    0.7492    0.4310 C   0  0  0  0  0  0  0  0  0  0  0  0
    5.2596    0.3006    0.0747 O   0  0  0  0  0  0  0  0  0  0  0  0
    3.8378    2.0240    0.9501 C   0  0  0  0  0  0  0  0  0  0  0  0
    2.5516    2.4360    1.2985 C   0  0  0  0  0  0  0  0  0  0  0  0
    1.4609    1.5730    1.1276 C   0  0  0  0  0  0  0  0  0  0  0  0
   -0.1015    2.1746    1.5682 Cl  0  0  0  0  0  0  0  0  0  0  0  0
   -3.5107   -1.3951   -2.1898 H   0  0  0  0  0  0  0  0  0  0  0  0
   -2.9905   -1.4312   -3.8829 H   0  0  0  0  0  0  0  0  0  0  0  0
   -2.3862   -0.1693   -2.7952 H   0  0  0  0  0  0  0  0  0  0  0  0
   -1.7679   -3.1773   -2.6091 H   0  0  0  0  0  0  0  0  0  0  0  0
   -0.6692   -1.9606   -3.2138 H   0  0  0  0  0  0  0  0  0  0  0  0
    0.5080   -0.4505   -1.7414 H   0  0  0  0  0  0  0  0  0  0  0  0
    0.2902   -1.1250    2.5059 H   0  0  0  0  0  0  0  0  0  0  0  0
   -1.5526   -2.7081    2.1673 H   0  0  0  0  0  0  0  0  0  0  0  0
   -2.8981   -3.6875    0.6818 H   0  0  0  0  0  0  0  0  0  0  0  0
    3.1269   -1.1099   -0.1485 H   0  0  0  0  0  0  0  0  0  0  0  0
    5.9112    1.0006    0.2454 H   0  0  0  0  0  0  0  0  0  0  0  0
    4.6715    2.7053    1.0882 H   0  0  0  0  0  0  0  0  0  0  0  0
    2.4002    3.4346    1.7012 H   0  0  0  0  0  0  0  0  0  0  0  0
  1  2  1  0
  2  3  1  0
  3  4  2  0
  4  5  1  0
  5  6  2  0
  6  7  1  0
  7  8  2  0
  8  9  1  0
  5 10  1  0
 10 11  2  0
 11 12  1  0
 12 13  1  0
 12 14  2  0
 14 15  1  0
 15 16  2  0
 16 17  1  0
  8  3  1  0
 16 10  1  0
  1 18  1  0
  1 19  1  0
  1 20  1  0
  2 21  1  0
  2 22  1  0
  4 23  1  0
  6 24  1  0
  7 25  1  0
  9 26  1  0
 11 27  1  0
 13 28  1  0
 14 29  1  0
 15 30  1  0
M  END
>  <mol_id>  (10) 
Z8339566336

>  <drugclip_rank>  (10) 
10

>  <conformer>  (10) 
2

>  <align_rmsd>  (10) 
0.657

$$$$
Z2523388541
     RDKit          3D

 34 36  0  0  0  0  0  0  0  0999 V2000
   -0.7034    0.2996   -1.8077 C   0  0  0  0  0  0  0  0  0  0  0  0
   -0.8244   -0.8524   -0.8463 C   0  0  0  0  0  0  0  0  0  0  0  0
   -2.0014   -1.6194   -0.8440 C   0  0  0  0  0  0  0  0  0  0  0  0
   -2.1433   -2.6902    0.0314 C   0  0  0  0  0  0  0  0  0  0  0  0
   -3.3087   -3.3967   -0.0132 O   0  0  0  0  0  0  0  0  0  0  0  0
   -1.1291   -3.0234    0.9180 C   0  0  0  0  0  0  0  0  0  0  0  0
    0.0456   -2.2691    0.9243 C   0  0  0  0  0  0  0  0  0  0  0  0
    0.2182   -1.1795    0.0496 C   0  0  0  0  0  0  0  0  0  0  0  0
    1.4755   -0.4220    0.0984 C   0  0  0  0  0  0  0  0  0  0  0  0
    1.6224    0.6642    0.9720 C   0  0  0  0  0  0  0  0  0  0  0  0
    2.8212    1.3794    1.0287 C   0  0  0  0  0  0  0  0  0  0  0  0
    2.5576   -0.7785   -0.7198 C   0  0  0  0  0  0  0  0  0  0  0  0
    3.7596   -0.0584   -0.6779 C   0  0  0  0  0  0  0  0  0  0  0  0
    3.9010    1.0174    0.2143 C   0  0  0  0  0  0  0  0  0  0  0  0
    4.9282   -0.4696   -1.5355 C   0  0  0  0  0  0  0  0  0  0  0  0
    5.9298    0.6732   -1.6700 C   0  0  0  0  0  0  0  0  0  0  0  0
    6.2874    1.1549   -0.3737 O   0  0  0  0  0  0  0  0  0  0  0  0
    5.1837    1.8150    0.2578 C   0  0  0  0  0  0  0  0  0  0  0  0
   -0.5493    1.2373   -1.2644 H   0  0  0  0  0  0  0  0  0  0  0  0
   -1.6115    0.4166   -2.4089 H   0  0  0  0  0  0  0  0  0  0  0  0
    0.1285    0.1343   -2.4994 H   0  0  0  0  0  0  0  0  0  0  0  0
   -2.8154   -1.3855   -1.5258 H   0  0  0  0  0  0  0  0  0  0  0  0
   -3.2649   -4.1068    0.6478 H   0  0  0  0  0  0  0  0  0  0  0  0
   -1.2288   -3.8569    1.6054 H   0  0  0  0  0  0  0  0  0  0  0  0
    0.8405   -2.5331    1.6200 H   0  0  0  0  0  0  0  0  0  0  0  0
    0.7956    0.9582    1.6156 H   0  0  0  0  0  0  0  0  0  0  0  0
    2.9067    2.2192    1.7146 H   0  0  0  0  0  0  0  0  0  0  0  0
    2.4594   -1.6262   -1.3959 H   0  0  0  0  0  0  0  0  0  0  0  0
    5.4117   -1.3263   -1.0506 H   0  0  0  0  0  0  0  0  0  0  0  0
    4.5888   -0.7779   -2.5303 H   0  0  0  0  0  0  0  0  0  0  0  0
    6.8403    0.3132   -2.1597 H   0  0  0  0  0  0  0  0  0  0  0  0
    5.5316    1.4977   -2.2746 H   0  0  0  0  0  0  0  0  0  0  0  0
    5.4739    1.9956    1.2982 H   0  0  0  0  0  0  0  0  0  0  0  0
    5.0312    2.7850   -0.2299 H   0  0  0  0  0  0  0  0  0  0  0  0
  1  2  1  0
  2  3  2  0
  3  4  1  0
  4  5  1  0
  4  6  2  0
  6  7  1  0
  7  8  2  0
  8  9  1  0
  9 10  2  0
 10 11  1  0
  9 12  1  0
 12 13  2  0
 13 14  1  0
 13 15  1  0
 15 16  1  0
 16 17  1  0
 17 18  1  0
  8  2  1  0
 14 11  2  0
 18 14  1  0
  1 19  1  0
  1 20  1  0
  1 21  1  0
  3 22  1  0
  5 23  1  0
  6 24  1  0
  7 25  1  0
 10 26  1  0
 11 27  1  0
 12 28  1  0
 15 29  1  0
 15 30  1  0
 16 31  1  0
 16 32  1  0
 18 33  1  0
 18 34  1  0
M  END
>  <mol_id>  (11) 
Z2523388541

>  <drugclip_rank>  (11) 
11

>  <conformer>  (11) 
0

>  <align_rmsd>  (11) 
0.578

$$$$
Z5020307856
     RDKit          3D

 29 31  0  0  0  0  0  0  0  0999 V2000
    3.0628    2.7726    1.1527 C   0  0  0  0  0  0  0  0  0  0  0  0
    4.5718    2.9914    0.9512 C   0  0  0  0  0  0  0  0  0  0  0  0
    5.0887    1.6906    0.3887 C   0  0  0  0  0  0  0  0  0  0  0  0
    6.2406    1.4450    0.0777 O   0  0  0  0  0  0  0  0  0  0  0  0
    3.9882    0.7457    0.2654 C   0  0  0  0  0  0  0  0  0  0  0  0
    2.8265    1.3665    0.7029 C   0  0  0  0  0  0  0  0  0  0  0  0
    4.0168   -0.5558   -0.1964 C   0  0  0  0  0  0  0  0  0  0  0  0
    2.8104   -1.2594   -0.2129 C   0  0  0  0  0  0  0  0  0  0  0  0
    1.6061   -0.6607    0.2284 C   0  0  0  0  0  0  0  0  0  0  0  0
    1.6257    0.6719    0.6864 C   0  0  0  0  0  0  0  0  0  0  0  0
    0.3468   -1.4200    0.1952 C   0  0  0  0  0  0  0  0  0  0  0  0
   -0.2855   -1.6382   -1.0430 C   0  0  0  0  0  0  0  0  0  0  0  0
   -1.4836   -2.3509   -1.1238 C   0  0  0  0  0  0  0  0  0  0  0  0
   -2.0635   -2.8558    0.0319 C   0  0  0  0  0  0  0  0  0  0  0  0
   -3.2323   -3.5453   -0.0957 O   0  0  0  0  0  0  0  0  0  0  0  0
   -1.4657   -2.6613    1.2709 C   0  0  0  0  0  0  0  0  0  0  0  0
   -0.2646   -1.9461    1.3511 C   0  0  0  0  0  0  0  0  0  0  0  0
    0.4385   -1.7523    2.9224 Cl  0  0  0  0  0  0  0  0  0  0  0  0
    2.7903    2.8978    2.2057 H   0  0  0  0  0  0  0  0  0  0  0  0
    2.4848    3.4786    0.5474 H   0  0  0  0  0  0  0  0  0  0  0  0
    5.0674    3.2068    1.9025 H   0  0  0  0  0  0  0  0  0  0  0  0
    4.7590    3.8034    0.2422 H   0  0  0  0  0  0  0  0  0  0  0  0
    4.9440   -1.0106   -0.5295 H   0  0  0  0  0  0  0  0  0  0  0  0
    2.8057   -2.2893   -0.5667 H   0  0  0  0  0  0  0  0  0  0  0  0
    0.7107    1.1506    1.0270 H   0  0  0  0  0  0  0  0  0  0  0  0
    0.1556   -1.2455   -1.9579 H   0  0  0  0  0  0  0  0  0  0  0  0
   -1.9614   -2.5101   -2.0871 H   0  0  0  0  0  0  0  0  0  0  0  0
   -3.5217   -3.8473    0.7814 H   0  0  0  0  0  0  0  0  0  0  0  0
   -1.9172   -3.0589    2.1743 H   0  0  0  0  0  0  0  0  0  0  0  0
  1  2  1  0
  2  3  1  0
  3  4  2  0
  3  5  1  0
  5  6  2  0
  5  7  1  0
  7  8  2  0
  8  9  1  0
  9 10  2  0
  9 11  1  0
 11 12  2  0
 12 13  1  0
 13 14  2  0
 14 15  1  0
 14 16  1  0
 16 17  2  0
 17 18  1  0
  6  1  1  0
 10  6  1  0
 17 11  1  0
  1 19  1  0
  1 20  1  0
  2 21  1  0
  2 22  1  0
  7 23  1  0
  8 24  1  0
 10 25  1  0
 12 26  1  0
 13 27  1  0
 15 28  1  0
 16 29  1  0
M  END
>  <mol_id>  (12) 
Z5020307856

>  <drugclip_rank>  (12) 
12

>  <conformer>  (12) 
3

>  <align_rmsd>  (12) 
0.582

$$$$
OSSM_283194
     RDKit          3D

 42 44  0  0  0  0  0  0  0  0999 V2000
   -0.1185   -0.8122    2.9769 C   0  0  0  0  0  0  0  0  0  0  0  0
   -0.5591   -0.6840    1.5284 C   0  0  0  0  0  0  0  0  0  0  0  0
   -2.1007   -0.5163    1.3003 C   0  0  0  0  0  0  0  0  0  0  0  0
   -2.7360    0.7585    1.8927 C   0  0  0  0  0  0  0  0  0  0  0  0
   -2.9816   -1.6862    1.7903 C   0  0  0  0  0  0  0  0  0  0  0  0
   -1.9122   -0.4763   -0.2369 C   0  0  0  0  0  0  0  0  0  0  0  0
   -1.1553   -1.7884   -0.5398 C   0  0  0  0  0  0  0  0  0  0  0  0
   -0.2482   -1.9555    0.6906 C   0  0  0  0  0  0  0  0  0  0  0  0
   -0.9052    0.6782   -0.4567 C   0  0  0  0  0  0  0  0  0  0  0  0
    0.0302    0.5713    0.7799 C   0  0  0  0  0  0  0  0  0  0  0  0
    1.5282    0.5855    0.5320 C   0  0  0  0  0  0  0  0  0  0  0  0
    2.3716    1.1139    1.5295 C   0  0  0  0  0  0  0  0  0  0  0  0
    3.7686    1.1626    1.3784 C   0  0  0  0  0  0  0  0  0  0  0  0
    4.6091    1.7379    2.4804 C   0  0  0  0  0  0  0  0  0  0  0  0
    4.3213    0.6672    0.1956 C   0  0  0  0  0  0  0  0  0  0  0  0
    5.6637    0.6650   -0.0555 O   0  0  0  0  0  0  0  0  0  0  0  0
    3.5100    0.1391   -0.8028 C   0  0  0  0  0  0  0  0  0  0  0  0
    2.1243    0.0980   -0.6366 C   0  0  0  0  0  0  0  0  0  0  0  0
   -0.6331   -1.6380    3.4786 H   0  0  0  0  0  0  0  0  0  0  0  0
   -0.3294    0.1029    3.5395 H   0  0  0  0  0  0  0  0  0  0  0  0
    0.9556   -1.0111    3.0483 H   0  0  0  0  0  0  0  0  0  0  0  0
   -2.2472    1.6920    1.6093 H   0  0  0  0  0  0  0  0  0  0  0  0
   -3.7796    0.8483    1.5684 H   0  0  0  0  0  0  0  0  0  0  0  0
   -2.7316    0.7184    2.9879 H   0  0  0  0  0  0  0  0  0  0  0  0
   -3.0219   -1.7081    2.8853 H   0  0  0  0  0  0  0  0  0  0  0  0
   -4.0081   -1.5678    1.4236 H   0  0  0  0  0  0  0  0  0  0  0  0
   -2.6499   -2.6754    1.4691 H   0  0  0  0  0  0  0  0  0  0  0  0
   -2.8281   -0.3627   -0.8218 H   0  0  0  0  0  0  0  0  0  0  0  0
   -0.5786   -1.7347   -1.4688 H   0  0  0  0  0  0  0  0  0  0  0  0
   -1.8430   -2.6355   -0.6327 H   0  0  0  0  0  0  0  0  0  0  0  0
   -0.5024   -2.8728    1.2337 H   0  0  0  0  0  0  0  0  0  0  0  0
    0.8045   -2.0527    0.4142 H   0  0  0  0  0  0  0  0  0  0  0  0
   -0.4062    0.6022   -1.4258 H   0  0  0  0  0  0  0  0  0  0  0  0
   -1.4224    1.6449   -0.4544 H   0  0  0  0  0  0  0  0  0  0  0  0
   -0.1632    1.4652    1.3893 H   0  0  0  0  0  0  0  0  0  0  0  0
    1.9262    1.4973    2.4470 H   0  0  0  0  0  0  0  0  0  0  0  0
    5.3078    0.9839    2.8568 H   0  0  0  0  0  0  0  0  0  0  0  0
    3.9970    2.0713    3.3251 H   0  0  0  0  0  0  0  0  0  0  0  0
    5.1692    2.6051    2.1161 H   0  0  0  0  0  0  0  0  0  0  0  0
    6.1305    1.0539    0.6993 H   0  0  0  0  0  0  0  0  0  0  0  0
    3.9580   -0.2463   -1.7148 H   0  0  0  0  0  0  0  0  0  0  0  0
    1.5309   -0.3376   -1.4348 H   0  0  0  0  0  0  0  0  0  0  0  0
  1  2  1  0
  2  3  1  0
  3  4  1  0
  3  5  1  0
  3  6  1  0
  6  7  1  0
  7  8  1  0
  6  9  1  0
  9 10  1  0
 10 11  1  0
 11 12  2  0
 12 13  1  0
 13 14  1  0
 13 15  2  0
 15 16  1  0
 15 17  1  0
 17 18  2  0
 10  2  1  0
  8  2  1  0
 18 11  1  0
  1 19  1  0
  1 20  1  0
  1 21  1  0
  4 22  1  0
  4 23  1  0
  4 24  1  0
  5 25  1  0
  5 26  1  0
  5 27  1  0
  6 28  1  0
  7 29  1  0
  7 30  1  0
  8 31  1  0
  8 32  1  0
  9 33  1  0
  9 34  1  0
 10 35  1  0
 12 36  1  0
 14 37  1  0
 14 38  1  0
 14 39  1  0
 16 40  1  0
 17 41  1  0
 18 42  1  0
M  END
>  <mol_id>  (13) 
OSSM_283194

>  <drugclip_rank>  (13) 
13

>  <conformer>  (13) 
3

>  <align_rmsd>  (13) 
0.032

$$$$
STL328950
     RDKit          3D

 41 44  0  0  0  0  0  0  0  0999 V2000
   -3.3165   -1.8447    2.5515 C   0  0  0  0  0  0  0  0  0  0  0  0
   -4.2095   -1.2166    3.4259 C   0  0  0  0  0  0  0  0  0  0  0  0
   -4.2819    0.1803    3.4888 C   0  0  0  0  0  0  0  0  0  0  0  0
   -3.4669    0.9645    2.6741 C   0  0  0  0  0  0  0  0  0  0  0  0
   -2.5798    0.3275    1.8135 C   0  0  0  0  0  0  0  0  0  0  0  0
   -1.6242    0.9390    0.8116 C   0  0  0  0  0  0  0  0  0  0  0  0
   -2.4518    1.3969   -0.4071 C   0  0  0  0  0  0  0  0  0  0  0  0
   -0.8665    2.1449    1.3851 C   0  0  0  0  0  0  0  0  0  0  0  0
   -2.4893   -1.0686    1.7520 C   0  0  0  0  0  0  0  0  0  0  0  0
   -1.5456   -1.5172    0.8045 N   0  0  0  0  0  0  0  0  0  0  0  0
   -0.8862   -2.7834    1.0897 C   0  0  0  0  0  0  0  0  0  0  0  0
   -0.6922   -0.3268    0.5313 C   0  0  0  0  0  0  0  0  0  0  0  0
    0.4002   -0.3291    1.4851 O   0  0  0  0  0  0  0  0  0  0  0  0
    1.6620   -0.0547    1.0391 C   0  0  0  0  0  0  0  0  0  0  0  0
    2.0147   -0.0197   -0.3119 C   0  0  0  0  0  0  0  0  0  0  0  0
    1.0109   -0.3024   -1.3228 C   0  0  0  0  0  0  0  0  0  0  0  0
   -0.2528   -0.4491   -0.9137 C   0  0  0  0  0  0  0  0  0  0  0  0
    3.3372    0.2571   -0.6704 C   0  0  0  0  0  0  0  0  0  0  0  0
    4.2869    0.4945    0.3193 C   0  0  0  0  0  0  0  0  0  0  0  0
    5.5634    0.7623   -0.0787 O   0  0  0  0  0  0  0  0  0  0  0  0
    3.9430    0.4545    1.6667 C   0  0  0  0  0  0  0  0  0  0  0  0
    2.6241    0.1743    2.0253 C   0  0  0  0  0  0  0  0  0  0  0  0
   -3.2889   -2.9274    2.5050 H   0  0  0  0  0  0  0  0  0  0  0  0
   -4.8580   -1.8191    4.0569 H   0  0  0  0  0  0  0  0  0  0  0  0
   -4.9847    0.6541    4.1695 H   0  0  0  0  0  0  0  0  0  0  0  0
   -3.5366    2.0466    2.7111 H   0  0  0  0  0  0  0  0  0  0  0  0
   -3.0210    0.5725   -0.8526 H   0  0  0  0  0  0  0  0  0  0  0  0
   -1.8102    1.8277   -1.1838 H   0  0  0  0  0  0  0  0  0  0  0  0
   -3.1788    2.1685   -0.1253 H   0  0  0  0  0  0  0  0  0  0  0  0
   -0.3944    1.9174    2.3474 H   0  0  0  0  0  0  0  0  0  0  0  0
   -0.0895    2.4836    0.6914 H   0  0  0  0  0  0  0  0  0  0  0  0
   -1.5391    2.9929    1.5598 H   0  0  0  0  0  0  0  0  0  0  0  0
   -0.1063   -2.9898    0.3489 H   0  0  0  0  0  0  0  0  0  0  0  0
   -1.5987   -3.6131    1.0309 H   0  0  0  0  0  0  0  0  0  0  0  0
   -0.4207   -2.7888    2.0821 H   0  0  0  0  0  0  0  0  0  0  0  0
    1.2961   -0.3967   -2.3637 H   0  0  0  0  0  0  0  0  0  0  0  0
   -1.0237   -0.6800   -1.6427 H   0  0  0  0  0  0  0  0  0  0  0  0
    3.6383    0.2869   -1.7138 H   0  0  0  0  0  0  0  0  0  0  0  0
    6.1133    0.9006    0.7101 H   0  0  0  0  0  0  0  0  0  0  0  0
    4.6783    0.6341    2.4444 H   0  0  0  0  0  0  0  0  0  0  0  0
    2.3407    0.1359    3.0740 H   0  0  0  0  0  0  0  0  0  0  0  0
  1  2  2  0
  2  3  1  0
  3  4  2  0
  4  5  1  0
  5  6  1  0
  6  7  1  0
  6  8  1  0
  5  9  2  0
  9 10  1  0
 10 11  1  0
 10 12  1  0
 12 13  1  0
 13 14  1  0
 14 15  2  0
 15 16  1  0
 16 17  2  0
 15 18  1  0
 18 19  2  0
 19 20  1  0
 19 21  1  0
 21 22  2  0
  9  1  1  0
 12  6  1  0
 17 12  1  0
 22 14  1  0
  1 23  1  0
  2 24  1  0
  3 25  1  0
  4 26  1  0
  7 27  1  0
  7 28  1  0
  7 29  1  0
  8 30  1  0
  8 31  1  0
  8 32  1  0
 11 33  1  0
 11 34  1  0
 11 35  1  0
 16 36  1  0
 17 37  1  0
 18 38  1  0
 20 39  1  0
 21 40  1  0
 22 41  1  0
M  END
>  <mol_id>  (14) 
STL328950

>  <drugclip_rank>  (14) 
14

>  <conformer>  (14) 
2

>  <align_rmsd>  (14) 
0.403

$$$$
Z2998091999
     RDKit          3D

 34 36  0  0  0  0  0  0  0  0999 V2000
    5.4720    0.5139   -0.0290 O   0  0  0  0  0  0  0  0  0  0  0  0
    4.2417    0.7816    0.4961 C   0  0  0  0  0  0  0  0  0  0  0  0
    4.0899    1.6353    1.5823 C   0  0  0  0  0  0  0  0  0  0  0  0
    2.8127    1.8787    2.0827 C   0  0  0  0  0  0  0  0  0  0  0  0
    1.7006    1.2681    1.4941 C   0  0  0  0  0  0  0  0  0  0  0  0
    1.8432    0.4026    0.3953 C   0  0  0  0  0  0  0  0  0  0  0  0
    3.1386    0.1700   -0.0945 C   0  0  0  0  0  0  0  0  0  0  0  0
    0.6710   -0.2415   -0.2213 C   0  0  0  0  0  0  0  0  0  0  0  0
   -0.4348    0.5125   -0.6370 C   0  0  0  0  0  0  0  0  0  0  0  0
   -1.5481   -0.1009   -1.2171 C   0  0  0  0  0  0  0  0  0  0  0  0
    0.6254   -1.6325   -0.4118 C   0  0  0  0  0  0  0  0  0  0  0  0
   -0.4838   -2.2633   -1.0029 C   0  0  0  0  0  0  0  0  0  0  0  0
   -1.5890   -1.4901   -1.3931 C   0  0  0  0  0  0  0  0  0  0  0  0
   -0.4764   -3.7658   -1.1415 C   0  0  0  0  0  0  0  0  0  0  0  0
   -1.5326   -4.2879   -2.1129 C   0  0  0  0  0  0  0  0  0  0  0  0
   -2.8870   -3.6291   -1.8768 C   0  0  0  0  0  0  0  0  0  0  0  0
   -2.8027   -2.1084   -2.0501 C   0  0  0  0  0  0  0  0  0  0  0  0
   -3.3817   -3.9659   -0.5790 O   0  0  0  0  0  0  0  0  0  0  0  0
    6.1379    1.0111    0.4733 H   0  0  0  0  0  0  0  0  0  0  0  0
    4.9448    2.1145    2.0481 H   0  0  0  0  0  0  0  0  0  0  0  0
    2.6779    2.5412    2.9339 H   0  0  0  0  0  0  0  0  0  0  0  0
    0.7137    1.4629    1.9097 H   0  0  0  0  0  0  0  0  0  0  0  0
    3.2946   -0.4828   -0.9501 H   0  0  0  0  0  0  0  0  0  0  0  0
   -0.4319    1.5948   -0.5238 H   0  0  0  0  0  0  0  0  0  0  0  0
   -2.3855    0.5171   -1.5347 H   0  0  0  0  0  0  0  0  0  0  0  0
    1.4675   -2.2416   -0.0843 H   0  0  0  0  0  0  0  0  0  0  0  0
   -0.6429   -4.2011   -0.1482 H   0  0  0  0  0  0  0  0  0  0  0  0
    0.5097   -4.1020   -1.4841 H   0  0  0  0  0  0  0  0  0  0  0  0
   -1.6129   -5.3746   -1.9926 H   0  0  0  0  0  0  0  0  0  0  0  0
   -1.2110   -4.0949   -3.1442 H   0  0  0  0  0  0  0  0  0  0  0  0
   -3.6146   -4.0280   -2.5921 H   0  0  0  0  0  0  0  0  0  0  0  0
   -2.7536   -1.8718   -3.1203 H   0  0  0  0  0  0  0  0  0  0  0  0
   -3.7077   -1.6477   -1.6353 H   0  0  0  0  0  0  0  0  0  0  0  0
   -2.9003   -3.4257    0.0732 H   0  0  0  0  0  0  0  0  0  0  0  0
  1  2  1  0
  2  3  2  0
  3  4  1  0
  4  5  2  0
  5  6  1  0
  6  7  2  0
  6  8  1  0
  8  9  2  0
  9 10  1  0
  8 11  1  0
 11 12  2  0
 12 13  1  0
 12 14  1  0
 14 15  1  0
 15 16  1  0
 16 17  1  0
 16 18  1  0
  7  2  1  0
 13 10  2  0
 17 13  1  0
  1 19  1  0
  3 20  1  0
  4 21  1  0
  5 22  1  0
  7 23  1  0
  9 24  1  0
 10 25  1  0
 11 26  1  0
 14 27  1  0
 14 28  1  0
 15 29  1  0
 15 30  1  0
 16 31  1  0
 17 32  1  0
 17 33  1  0
 18 34  1  0
M  END
>  <mol_id>  (15) 
Z2998091999

>  <drugclip_rank>  (15) 
15

>  <conformer>  (15) 
0

>  <align_rmsd>  (15) 
0.796

$$$$
Z5020307317
     RDKit          3D

 31 33  0  0  0  0  0  0  0  0999 V2000
    5.4993    1.3646    0.1334 O   0  0  0  0  0  0  0  0  0  0  0  0
    5.0489    2.7124    0.3934 C   0  0  0  0  0  0  0  0  0  0  0  0
    3.6584    2.6590    1.0238 C   0  0  0  0  0  0  0  0  0  0  0  0
    3.2201    1.3283    0.5349 C   0  0  0  0  0  0  0  0  0  0  0  0
    4.3334    0.6462    0.0628 C   0  0  0  0  0  0  0  0  0  0  0  0
    1.9592    0.7327    0.5558 C   0  0  0  0  0  0  0  0  0  0  0  0
    0.7646    1.4875    1.0687 C   0  0  0  0  0  0  0  0  0  0  0  0
    1.8439   -0.5820    0.0367 C   0  0  0  0  0  0  0  0  0  0  0  0
    3.0016   -1.2515   -0.4344 C   0  0  0  0  0  0  0  0  0  0  0  0
    4.2561   -0.6414   -0.4155 C   0  0  0  0  0  0  0  0  0  0  0  0
    0.5534   -1.2918   -0.0167 C   0  0  0  0  0  0  0  0  0  0  0  0
    0.2041   -2.1510    1.0433 C   0  0  0  0  0  0  0  0  0  0  0  0
   -1.0067   -2.8480    1.0400 C   0  0  0  0  0  0  0  0  0  0  0  0
   -1.8790   -2.6920   -0.0300 C   0  0  0  0  0  0  0  0  0  0  0  0
   -3.0710   -3.3518   -0.0756 O   0  0  0  0  0  0  0  0  0  0  0  0
   -1.5616   -1.8556   -1.0929 C   0  0  0  0  0  0  0  0  0  0  0  0
   -0.3499   -1.1588   -1.0890 C   0  0  0  0  0  0  0  0  0  0  0  0
   -0.0083   -0.1403   -2.4464 Cl  0  0  0  0  0  0  0  0  0  0  0  0
    5.0290    3.2494   -0.5637 H   0  0  0  0  0  0  0  0  0  0  0  0
    5.7685    3.2160    1.0472 H   0  0  0  0  0  0  0  0  0  0  0  0
    3.7209    2.6574    2.1169 H   0  0  0  0  0  0  0  0  0  0  0  0
    3.0321    3.4875    0.6834 H   0  0  0  0  0  0  0  0  0  0  0  0
    0.1647    1.8571    0.2315 H   0  0  0  0  0  0  0  0  0  0  0  0
    0.1428    0.8537    1.7086 H   0  0  0  0  0  0  0  0  0  0  0  0
    1.0597    2.3457    1.6806 H   0  0  0  0  0  0  0  0  0  0  0  0
    2.9177   -2.2634   -0.8276 H   0  0  0  0  0  0  0  0  0  0  0  0
    5.1386   -1.1562   -0.7771 H   0  0  0  0  0  0  0  0  0  0  0  0
    0.8852   -2.2750    1.8842 H   0  0  0  0  0  0  0  0  0  0  0  0
   -1.2460   -3.5006    1.8740 H   0  0  0  0  0  0  0  0  0  0  0  0
   -3.1587   -3.9012    0.7209 H   0  0  0  0  0  0  0  0  0  0  0  0
   -2.2575   -1.7513   -1.9205 H   0  0  0  0  0  0  0  0  0  0  0  0
  1  2  1  0
  2  3  1  0
  3  4  1  0
  4  5  2  0
  4  6  1  0
  6  7  1  0
  6  8  2  0
  8  9  1  0
  9 10  2  0
  8 11  1  0
 11 12  2  0
 12 13  1  0
 13 14  2  0
 14 15  1  0
 14 16  1  0
 16 17  2  0
 17 18  1  0
  5  1  1  0
 10  5  1  0
 17 11  1  0
  2 19  1  0
  2 20  1  0
  3 21  1  0
  3 22  1  0
  7 23  1  0
  7 24  1  0
  7 25  1  0
  9 26  1  0
 10 27  1  0
 12 28  1  0
 13 29  1  0
 15 30  1  0
 16 31  1  0
M  END
>  <mol_id>  (16) 
Z5020307317

>  <drugclip_rank>  (16) 
16

>  <conformer>  (16) 
0

>  <align_rmsd>  (16) 
0.521

$$$$
Z5020308071
     RDKit          3D

 30 32  0  0  0  0  0  0  0  0999 V2000
    5.6656    0.6604   -0.0667 O   0  0  0  0  0  0  0  0  0  0  0  0
    4.3231    0.6566    0.1704 C   0  0  0  0  0  0  0  0  0  0  0  0
    3.4967    0.0966   -0.7952 C   0  0  0  0  0  0  0  0  0  0  0  0
    2.1151    0.0703   -0.5926 C   0  0  0  0  0  0  0  0  0  0  0  0
    1.5516    0.6034    0.5780 C   0  0  0  0  0  0  0  0  0  0  0  0
    2.4087    1.1682    1.5374 C   0  0  0  0  0  0  0  0  0  0  0  0
    3.7919    1.1941    1.3374 C   0  0  0  0  0  0  0  0  0  0  0  0
    0.0948    0.5871    0.7841 C   0  0  0  0  0  0  0  0  0  0  0  0
   -0.7030    1.4913    0.0403 C   0  0  0  0  0  0  0  0  0  0  0  0
   -2.0931    1.5319    0.1780 C   0  0  0  0  0  0  0  0  0  0  0  0
   -0.5416   -0.2933    1.6851 C   0  0  0  0  0  0  0  0  0  0  0  0
    0.3501   -1.4603    2.5991 Cl  0  0  0  0  0  0  0  0  0  0  0  0
   -1.9245   -0.2348    1.8287 C   0  0  0  0  0  0  0  0  0  0  0  0
   -2.6878    0.6687    1.0788 C   0  0  0  0  0  0  0  0  0  0  0  0
   -2.8184   -1.0839    2.6833 C   0  0  0  0  0  0  0  0  0  0  0  0
   -4.1123   -0.2581    2.6883 C   0  0  0  0  0  0  0  0  0  0  0  0
   -4.1491    0.5051    1.3594 C   0  0  0  0  0  0  0  0  0  0  0  0
    6.1132    1.0530    0.7005 H   0  0  0  0  0  0  0  0  0  0  0  0
    3.9247   -0.3218   -1.7015 H   0  0  0  0  0  0  0  0  0  0  0  0
    1.4775   -0.3763   -1.3526 H   0  0  0  0  0  0  0  0  0  0  0  0
    1.9971    1.5904    2.4520 H   0  0  0  0  0  0  0  0  0  0  0  0
    4.4290    1.6336    2.0979 H   0  0  0  0  0  0  0  0  0  0  0  0
   -0.2264    2.1751   -0.6615 H   0  0  0  0  0  0  0  0  0  0  0  0
   -2.6853    2.2253   -0.4114 H   0  0  0  0  0  0  0  0  0  0  0  0
   -2.4375   -1.2146    3.7000 H   0  0  0  0  0  0  0  0  0  0  0  0
   -2.9746   -2.0593    2.2110 H   0  0  0  0  0  0  0  0  0  0  0  0
   -4.0747    0.4634    3.5164 H   0  0  0  0  0  0  0  0  0  0  0  0
   -5.0023   -0.8765    2.8407 H   0  0  0  0  0  0  0  0  0  0  0  0
   -4.6661    1.4631    1.4629 H   0  0  0  0  0  0  0  0  0  0  0  0
   -4.6189   -0.0927    0.5716 H   0  0  0  0  0  0  0  0  0  0  0  0
  1  2  1  0
  2  3  2  0
  3  4  1  0
  4  5  2  0
  5  6  1  0
  6  7  2  0
  5  8  1  0
  8  9  2  0
  9 10  1  0
  8 11  1  0
 11 12  1  0
 11 13  2  0
 13 14  1  0
 13 15  1  0
 15 16  1  0
 16 17  1  0
  7  2  1  0
 14 10  2  0
 17 14  1  0
  1 18  1  0
  3 19  1  0
  4 20  1  0
  6 21  1  0
  7 22  1  0
  9 23  1  0
 10 24  1  0
 15 25  1  0
 15 26  1  0
 16 27  1  0
 16 28  1  0
 17 29  1  0
 17 30  1  0
M  END
>  <mol_id>  (17) 
Z5020308071

>  <drugclip_rank>  (17) 
17

>  <conformer>  (17) 
1

>  <align_rmsd>  (17) 
0.041

$$$$
Z5020308101
     RDKit          3D

 33 35  0  0  0  0  0  0  0  0999 V2000
   -4.1290    0.5534    1.4406 C   0  0  0  0  0  0  0  0  0  0  0  0
   -4.0834   -0.3024    2.7106 C   0  0  0  0  0  0  0  0  0  0  0  0
   -2.8162   -1.1616    2.6113 C   0  0  0  0  0  0  0  0  0  0  0  0
   -1.9141   -0.2799    1.7960 C   0  0  0  0  0  0  0  0  0  0  0  0
   -2.6704    0.6992    1.1375 C   0  0  0  0  0  0  0  0  0  0  0  0
   -0.5316   -0.3756    1.6189 C   0  0  0  0  0  0  0  0  0  0  0  0
    0.2575   -1.4410    2.3289 C   0  0  0  0  0  0  0  0  0  0  0  0
    0.0971    0.5846    0.7879 C   0  0  0  0  0  0  0  0  0  0  0  0
   -0.6913    1.5624    0.1337 C   0  0  0  0  0  0  0  0  0  0  0  0
   -2.0759    1.6187    0.2963 C   0  0  0  0  0  0  0  0  0  0  0  0
    1.5526    0.6049    0.5768 C   0  0  0  0  0  0  0  0  0  0  0  0
    2.4122    1.1298    1.5559 C   0  0  0  0  0  0  0  0  0  0  0  0
    3.7953    1.1552    1.3566 C   0  0  0  0  0  0  0  0  0  0  0  0
    4.3229    0.6554    0.1710 C   0  0  0  0  0  0  0  0  0  0  0  0
    5.6655    0.6600   -0.0664 O   0  0  0  0  0  0  0  0  0  0  0  0
    3.4931    0.1342   -0.8136 C   0  0  0  0  0  0  0  0  0  0  0  0
    2.1115    0.1104   -0.6121 C   0  0  0  0  0  0  0  0  0  0  0  0
   -4.6322    0.0256    0.6240 H   0  0  0  0  0  0  0  0  0  0  0  0
   -4.6176    1.5144    1.6240 H   0  0  0  0  0  0  0  0  0  0  0  0
   -4.0031    0.3567    3.5864 H   0  0  0  0  0  0  0  0  0  0  0  0
   -4.9877   -0.9045    2.8429 H   0  0  0  0  0  0  0  0  0  0  0  0
   -2.4120   -1.3756    3.6046 H   0  0  0  0  0  0  0  0  0  0  0  0
   -3.0129   -2.0955    2.0747 H   0  0  0  0  0  0  0  0  0  0  0  0
    0.7063   -1.0314    3.2391 H   0  0  0  0  0  0  0  0  0  0  0  0
    1.0463   -1.8460    1.6870 H   0  0  0  0  0  0  0  0  0  0  0  0
   -0.3725   -2.2917    2.6072 H   0  0  0  0  0  0  0  0  0  0  0  0
   -0.2095    2.2944   -0.5131 H   0  0  0  0  0  0  0  0  0  0  0  0
   -2.6626    2.3703   -0.2214 H   0  0  0  0  0  0  0  0  0  0  0  0
    1.9990    1.5247    2.4820 H   0  0  0  0  0  0  0  0  0  0  0  0
    4.4348    1.5664    2.1306 H   0  0  0  0  0  0  0  0  0  0  0  0
    6.1133    1.0528    0.7005 H   0  0  0  0  0  0  0  0  0  0  0  0
    3.9179   -0.2530   -1.7351 H   0  0  0  0  0  0  0  0  0  0  0  0
    1.4678   -0.3019   -1.3863 H   0  0  0  0  0  0  0  0  0  0  0  0
  1  2  1  0
  2  3  1  0
  3  4  1  0
  4  5  2  0
  4  6  1  0
  6  7  1  0
  6  8  2  0
  8  9  1  0
  9 10  2  0
  8 11  1  0
 11 12  2  0
 12 13  1  0
 13 14  2  0
 14 15  1  0
 14 16  1  0
 16 17  2  0
  5  1  1  0
 10  5  1  0
 17 11  1  0
  1 18  1  0
  1 19  1  0
  2 20  1  0
  2 21  1  0
  3 22  1  0
  3 23  1  0
  7 24  1  0
  7 25  1  0
  7 26  1  0
  9 27  1  0
 10 28  1  0
 12 29  1  0
 13 30  1  0
 15 31  1  0
 16 32  1  0
 17 33  1  0
M  END
>  <mol_id>  (18) 
Z5020308101

>  <drugclip_rank>  (18) 
18

>  <conformer>  (18) 
1

>  <align_rmsd>  (18) 
0.041

$$$$
Z56899138
     RDKit          3D

 39 40  0  0  0  0  0  0  0  0999 V2000
   -3.1279   -3.2288   -0.0211 O   0  0  0  0  0  0  0  0  0  0  0  0
   -2.3797   -2.0955    0.1234 C   0  0  0  0  0  0  0  0  0  0  0  0
   -2.6794   -1.0490   -0.7423 C   0  0  0  0  0  0  0  0  0  0  0  0
   -1.9660    0.1500   -0.6749 C   0  0  0  0  0  0  0  0  0  0  0  0
   -0.9365    0.3222    0.2621 C   0  0  0  0  0  0  0  0  0  0  0  0
   -0.6588   -0.7551    1.1336 C   0  0  0  0  0  0  0  0  0  0  0  0
   -1.3674   -1.9681    1.0762 C   0  0  0  0  0  0  0  0  0  0  0  0
   -1.0119   -3.0735    2.0267 C   0  0  0  0  0  0  0  0  0  0  0  0
   -0.1214    1.6335    0.3834 C   0  0  0  0  0  0  0  0  0  0  0  0
   -0.4121    2.6544   -0.7481 C   0  0  0  0  0  0  0  0  0  0  0  0
   -0.5855    2.3107    1.6998 C   0  0  0  0  0  0  0  0  0  0  0  0
    1.4005    1.3499    0.3306 C   0  0  0  0  0  0  0  0  0  0  0  0
    1.9312    0.6115   -0.7445 C   0  0  0  0  0  0  0  0  0  0  0  0
    3.2967    0.3410   -0.8303 C   0  0  0  0  0  0  0  0  0  0  0  0
    4.1615    0.8059    0.1531 C   0  0  0  0  0  0  0  0  0  0  0  0
    5.4814    0.4959   -0.0113 O   0  0  0  0  0  0  0  0  0  0  0  0
    3.6818    1.5463    1.2368 C   0  0  0  0  0  0  0  0  0  0  0  0
    4.5881    2.0657    2.3155 C   0  0  0  0  0  0  0  0  0  0  0  0
    2.3003    1.8111    1.3104 C   0  0  0  0  0  0  0  0  0  0  0  0
   -2.8169   -3.8982    0.6069 H   0  0  0  0  0  0  0  0  0  0  0  0
   -3.4727   -1.1670   -1.4758 H   0  0  0  0  0  0  0  0  0  0  0  0
   -2.2400    0.9363   -1.3720 H   0  0  0  0  0  0  0  0  0  0  0  0
    0.1378   -0.6467    1.8695 H   0  0  0  0  0  0  0  0  0  0  0  0
   -0.2071   -2.7789    2.7085 H   0  0  0  0  0  0  0  0  0  0  0  0
   -1.8796   -3.3411    2.6382 H   0  0  0  0  0  0  0  0  0  0  0  0
   -0.6704   -3.9536    1.4726 H   0  0  0  0  0  0  0  0  0  0  0  0
    0.2152    3.5487   -0.6436 H   0  0  0  0  0  0  0  0  0  0  0  0
   -1.4553    2.9919   -0.7313 H   0  0  0  0  0  0  0  0  0  0  0  0
   -0.2160    2.2382   -1.7434 H   0  0  0  0  0  0  0  0  0  0  0  0
   -0.1292    3.2994    1.8294 H   0  0  0  0  0  0  0  0  0  0  0  0
   -1.6731    2.4571    1.7064 H   0  0  0  0  0  0  0  0  0  0  0  0
   -0.3364    1.7128    2.5845 H   0  0  0  0  0  0  0  0  0  0  0  0
    1.2775    0.2306   -1.5272 H   0  0  0  0  0  0  0  0  0  0  0  0
    3.6845   -0.2345   -1.6663 H   0  0  0  0  0  0  0  0  0  0  0  0
    5.9935    0.8753    0.7184 H   0  0  0  0  0  0  0  0  0  0  0  0
    5.1005    1.2353    2.8117 H   0  0  0  0  0  0  0  0  0  0  0  0
    5.3290    2.7502    1.8900 H   0  0  0  0  0  0  0  0  0  0  0  0
    4.0327    2.6156    3.0825 H   0  0  0  0  0  0  0  0  0  0  0  0
    1.9375    2.3915    2.1550 H   0  0  0  0  0  0  0  0  0  0  0  0
  1  2  1  0
  2  3  2  0
  3  4  1  0
  4  5  2  0
  5  6  1  0
  6  7  2  0
  7  8  1  0
  5  9  1  0
  9 10  1  0
  9 11  1  0
  9 12  1  0
 12 13  2  0
 13 14  1  0
 14 15  2  0
 15 16  1  0
 15 17  1  0
 17 18  1  0
 17 19  2  0
  7  2  1  0
 19 12  1  0
  1 20  1  0
  3 21  1  0
  4 22  1  0
  6 23  1  0
  8 24  1  0
  8 25  1  0
  8 26  1  0
 10 27  1  0
 10 28  1  0
 10 29  1  0
 11 30  1  0
 11 31  1  0
 11 32  1  0
 13 33  1  0
 14 34  1  0
 16 35  1  0
 18 36  1  0
 18 37  1  0
 18 38  1  0
 19 39  1  0
M  END
>  <mol_id>  (19) 
Z56899138

>  <drugclip_rank>  (19) 
19

>  <conformer>  (19) 
8

>  <align_rmsd>  (19) 
0.417

$$$$
OSSL_301336
     RDKit          3D

 36 37  0  0  0  0  0  0  0  0999 V2000
    1.9721    0.3580   -0.6104 C   0  0  0  0  0  0  0  0  0  0  0  0
    3.3488    0.2037   -0.7857 C   0  0  0  0  0  0  0  0  0  0  0  0
    4.2231    0.7350    0.1497 C   0  0  0  0  0  0  0  0  0  0  0  0
    5.5595    0.5641   -0.0569 O   0  0  0  0  0  0  0  0  0  0  0  0
    3.7417    1.4188    1.2587 C   0  0  0  0  0  0  0  0  0  0  0  0
    2.3613    1.5722    1.4340 C   0  0  0  0  0  0  0  0  0  0  0  0
    1.4467    1.0429    0.5060 C   0  0  0  0  0  0  0  0  0  0  0  0
   -0.0873    1.1965    0.6543 C   0  0  0  0  0  0  0  0  0  0  0  0
   -0.5219    1.8266    2.0037 C   0  0  0  0  0  0  0  0  0  0  0  0
   -0.5329    2.1945   -0.4468 C   0  0  0  0  0  0  0  0  0  0  0  0
   -0.7948   -0.1775    0.5702 C   0  0  0  0  0  0  0  0  0  0  0  0
   -0.3815   -1.2286    1.4134 C   0  0  0  0  0  0  0  0  0  0  0  0
   -0.9965   -2.4864    1.3758 C   0  0  0  0  0  0  0  0  0  0  0  0
   -2.0468   -2.7244    0.4947 C   0  0  0  0  0  0  0  0  0  0  0  0
   -2.4724   -1.6936   -0.3423 C   0  0  0  0  0  0  0  0  0  0  0  0
   -1.8580   -0.4362   -0.3075 C   0  0  0  0  0  0  0  0  0  0  0  0
   -2.7333   -3.8984    0.3546 O   0  0  0  0  0  0  0  0  0  0  0  0
   -2.3178   -4.9849    1.1724 C   0  0  0  0  0  0  0  0  0  0  0  0
    1.3046   -0.0716   -1.3557 H   0  0  0  0  0  0  0  0  0  0  0  0
    3.7329   -0.3308   -1.6496 H   0  0  0  0  0  0  0  0  0  0  0  0
    6.0411    0.9887    0.6713 H   0  0  0  0  0  0  0  0  0  0  0  0
    4.4180    1.8403    1.9957 H   0  0  0  0  0  0  0  0  0  0  0  0
    2.0244    2.1163    2.3118 H   0  0  0  0  0  0  0  0  0  0  0  0
   -0.1693    1.2471    2.8652 H   0  0  0  0  0  0  0  0  0  0  0  0
   -0.1409    2.8488    2.1148 H   0  0  0  0  0  0  0  0  0  0  0  0
   -1.6153    1.8825    2.0794 H   0  0  0  0  0  0  0  0  0  0  0  0
    0.0210    3.1389   -0.3713 H   0  0  0  0  0  0  0  0  0  0  0  0
   -0.3634    1.8020   -1.4564 H   0  0  0  0  0  0  0  0  0  0  0  0
   -1.5982    2.4409   -0.3631 H   0  0  0  0  0  0  0  0  0  0  0  0
    0.4413   -1.0776    2.1107 H   0  0  0  0  0  0  0  0  0  0  0  0
   -0.6259   -3.2530    2.0475 H   0  0  0  0  0  0  0  0  0  0  0  0
   -3.2938   -1.8692   -1.0330 H   0  0  0  0  0  0  0  0  0  0  0  0
   -2.2370    0.3249   -0.9833 H   0  0  0  0  0  0  0  0  0  0  0  0
   -1.2820   -5.2678    0.9578 H   0  0  0  0  0  0  0  0  0  0  0  0
   -2.9531   -5.8438    0.9350 H   0  0  0  0  0  0  0  0  0  0  0  0
   -2.4536   -4.7541    2.2341 H   0  0  0  0  0  0  0  0  0  0  0  0
  1  2  2  0
  2  3  1  0
  3  4  1  0
  3  5  2  0
  5  6  1  0
  6  7  2  0
  7  8  1  0
  8  9  1  0
  8 10  1  0
  8 11  1  0
 11 12  2  0
 12 13  1  0
 13 14  2  0
 14 15  1  0
 15 16  2  0
 14 17  1  0
 17 18  1  0
  7  1  1  0
 16 11  1  0
  1 19  1  0
  2 20  1  0
  4 21  1  0
  5 22  1  0
  6 23  1  0
  9 24  1  0
  9 25  1  0
  9 26  1  0
 10 27  1  0
 10 28  1  0
 10 29  1  0
 12 30  1  0
 13 31  1  0
 15 32  1  0
 16 33  1  0
 18 34  1  0
 18 35  1  0
 18 36  1  0
M  END
>  <mol_id>  (20) 
OSSL_301336

>  <drugclip_rank>  (20) 
20

>  <conformer>  (20) 
5

>  <align_rmsd>  (20) 
0.453

$$$$
STL564635
     RDKit          3D

 41 43  0  0  0  0  0  0  0  0999 V2000
   -2.6541    1.8883    0.3283 C   0  0  0  0  0  0  0  0  0  0  0  0
   -2.2590    0.4437    0.2170 C   0  0  0  0  0  0  0  0  0  0  0  0
   -3.0969   -0.5543    0.5520 C   0  0  0  0  0  0  0  0  0  0  0  0
   -2.7228   -2.0063    0.4446 C   0  0  0  0  0  0  0  0  0  0  0  0
   -1.2337   -2.2679    0.1042 C   0  0  1  0  0  0  0  0  0  0  0  0
   -0.8247   -1.2396   -0.9558 C   0  0  0  0  0  0  0  0  0  0  0  0
   -0.2426   -2.2002    1.3092 C   0  0  0  0  0  0  0  0  0  0  0  0
   -0.7562   -3.0119    2.5131 C   0  0  0  0  0  0  0  0  0  0  0  0
    1.1180   -2.8180    0.9245 C   0  0  0  0  0  0  0  0  0  0  0  0
   -0.0557   -0.8698    1.8159 O   0  0  0  0  0  0  0  0  0  0  0  0
    0.1631    0.2010    0.8752 C   0  0  0  0  0  0  0  0  0  0  0  0
   -0.8491    0.1481   -0.3010 C   0  0  2  0  0  0  0  0  0  0  0  0
    1.6490    0.3549    0.5601 C   0  0  0  0  0  0  0  0  0  0  0  0
    2.5687    0.3184    1.6279 C   0  0  0  0  0  0  0  0  0  0  0  0
    3.9400    0.4771    1.4143 C   0  0  0  0  0  0  0  0  0  0  0  0
    4.4059    0.6872    0.1239 C   0  0  0  0  0  0  0  0  0  0  0  0
    5.7343    0.8475   -0.1365 O   0  0  0  0  0  0  0  0  0  0  0  0
    3.5236    0.7442   -0.9461 C   0  0  0  0  0  0  0  0  0  0  0  0
    2.1512    0.5849   -0.7298 C   0  0  0  0  0  0  0  0  0  0  0  0
   -2.5944    2.3733   -0.6513 H   0  0  0  0  0  0  0  0  0  0  0  0
   -3.6794    2.0055    0.6947 H   0  0  0  0  0  0  0  0  0  0  0  0
   -1.9926    2.4186    1.0197 H   0  0  0  0  0  0  0  0  0  0  0  0
   -4.0995   -0.3351    0.9115 H   0  0  0  0  0  0  0  0  0  0  0  0
   -3.3361   -2.4310   -0.3619 H   0  0  0  0  0  0  0  0  0  0  0  0
   -3.0293   -2.5337    1.3516 H   0  0  0  0  0  0  0  0  0  0  0  0
   -1.1782   -3.2752   -0.3299 H   0  0  0  0  0  0  0  0  0  0  0  0
    0.1631   -1.4660   -1.3678 H   0  0  0  0  0  0  0  0  0  0  0  0
   -1.5166   -1.2742   -1.8082 H   0  0  0  0  0  0  0  0  0  0  0  0
    0.0111   -3.0762    3.2944 H   0  0  0  0  0  0  0  0  0  0  0  0
   -1.6126   -2.5251    2.9918 H   0  0  0  0  0  0  0  0  0  0  0  0
   -1.0366   -4.0305    2.2258 H   0  0  0  0  0  0  0  0  0  0  0  0
    1.8364   -2.7210    1.7467 H   0  0  0  0  0  0  0  0  0  0  0  0
    1.0149   -3.8821    0.6846 H   0  0  0  0  0  0  0  0  0  0  0  0
    1.5748   -2.3336    0.0590 H   0  0  0  0  0  0  0  0  0  0  0  0
   -0.0613    1.1143    1.4440 H   0  0  0  0  0  0  0  0  0  0  0  0
   -0.6125    0.9001   -1.0625 H   0  0  0  0  0  0  0  0  0  0  0  0
    2.2070    0.1548    2.6426 H   0  0  0  0  0  0  0  0  0  0  0  0
    4.6167    0.4343    2.2613 H   0  0  0  0  0  0  0  0  0  0  0  0
    6.2211    0.7820    0.7013 H   0  0  0  0  0  0  0  0  0  0  0  0
    3.9016    0.9151   -1.9503 H   0  0  0  0  0  0  0  0  0  0  0  0
    1.4969    0.6426   -1.5941 H   0  0  0  0  0  0  0  0  0  0  0  0
  1  2  1  0
  2  3  2  0
  3  4  1  0
  4  5  1  0
  5  6  1  0
  5  7  1  0
  7  8  1  0
  7  9  1  0
  7 10  1  0
 10 11  1  0
 11 12  1  0
 11 13  1  0
 13 14  2  0
 14 15  1  0
 15 16  2  0
 16 17  1  0
 16 18  1  0
 18 19  2  0
 12  2  1  0
 12  6  1  0
 19 13  1  0
  1 20  1  0
  1 21  1  0
  1 22  1  0
  3 23  1  0
  4 24  1  0
  4 25  1  0
  5 26  1  6
  6 27  1  0
  6 28  1  0
  8 29  1  0
  8 30  1  0
  8 31  1  0
  9 32  1  0
  9 33  1  0
  9 34  1  0
 11 35  1  0
 12 36  1  6
 14 37  1  0
 15 38  1  0
 17 39  1  0
 18 40  1  0
 19 41  1  0
M  END
>  <mol_id>  (21) 
STL564635

>  <drugclip_rank>  (21) 
21

>  <conformer>  (21) 
3

>  <align_rmsd>  (21) 
0.35

$$$$
Z5020307425
     RDKit          3D

 32 34  0  0  0  0  0  0  0  0999 V2000
   -2.8271   -1.7893    1.5828 C   0  0  0  0  0  0  0  0  0  0  0  0
   -4.1947   -1.2165    1.1738 C   0  0  0  0  0  0  0  0  0  0  0  0
   -4.0859    0.2539    1.2151 N   0  0  0  0  0  0  0  0  0  0  0  0
   -5.0330    1.0284    0.4327 C   0  0  0  0  0  0  0  0  0  0  0  0
   -2.7145    0.4920    1.0001 C   0  0  0  0  0  0  0  0  0  0  0  0
   -1.9398   -0.6550    1.1971 C   0  0  0  0  0  0  0  0  0  0  0  0
   -2.0962    1.6865    0.6757 C   0  0  0  0  0  0  0  0  0  0  0  0
   -0.7022    1.7142    0.5342 C   0  0  0  0  0  0  0  0  0  0  0  0
    0.0808    0.5564    0.7307 C   0  0  0  0  0  0  0  0  0  0  0  0
   -0.5582   -0.6450    1.0723 C   0  0  0  0  0  0  0  0  0  0  0  0
    1.5411    0.6050    0.5716 C   0  0  0  0  0  0  0  0  0  0  0  0
    2.1135    0.1052   -0.6130 C   0  0  0  0  0  0  0  0  0  0  0  0
    3.4954    0.1312   -0.8118 C   0  0  0  0  0  0  0  0  0  0  0  0
    4.3219    0.6562    0.1721 C   0  0  0  0  0  0  0  0  0  0  0  0
    5.6644    0.6609   -0.0645 O   0  0  0  0  0  0  0  0  0  0  0  0
    3.7908    1.1565    1.3547 C   0  0  0  0  0  0  0  0  0  0  0  0
    2.4049    1.1301    1.5530 C   0  0  0  0  0  0  0  0  0  0  0  0
    1.8079    1.7551    3.0537 Cl  0  0  0  0  0  0  0  0  0  0  0  0
   -2.6008   -2.7137    1.0447 H   0  0  0  0  0  0  0  0  0  0  0  0
   -2.7753   -1.9581    2.6634 H   0  0  0  0  0  0  0  0  0  0  0  0
   -4.4418   -1.5442    0.1543 H   0  0  0  0  0  0  0  0  0  0  0  0
   -4.9894   -1.5708    1.8391 H   0  0  0  0  0  0  0  0  0  0  0  0
   -4.8577    0.9123   -0.6428 H   0  0  0  0  0  0  0  0  0  0  0  0
   -4.9821    2.0913    0.6907 H   0  0  0  0  0  0  0  0  0  0  0  0
   -6.0540    0.6947    0.6476 H   0  0  0  0  0  0  0  0  0  0  0  0
   -2.6671    2.5984    0.5450 H   0  0  0  0  0  0  0  0  0  0  0  0
   -0.2204    2.6560    0.2785 H   0  0  0  0  0  0  0  0  0  0  0  0
    0.0148   -1.5510    1.2453 H   0  0  0  0  0  0  0  0  0  0  0  0
    1.4757   -0.3057   -1.3940 H   0  0  0  0  0  0  0  0  0  0  0  0
    3.9228   -0.2567   -1.7326 H   0  0  0  0  0  0  0  0  0  0  0  0
    6.1196    1.0528    0.6992 H   0  0  0  0  0  0  0  0  0  0  0  0
    4.4367    1.5645    2.1255 H   0  0  0  0  0  0  0  0  0  0  0  0
  1  2  1  0
  2  3  1  0
  3  4  1  0
  3  5  1  0
  5  6  2  0
  5  7  1  0
  7  8  2  0
  8  9  1  0
  9 10  2  0
  9 11  1  0
 11 12  2  0
 12 13  1  0
 13 14  2  0
 14 15  1  0
 14 16  1  0
 16 17  2  0
 17 18  1  0
  6  1  1  0
 10  6  1  0
 17 11  1  0
  1 19  1  0
  1 20  1  0
  2 21  1  0
  2 22  1  0
  4 23  1  0
  4 24  1  0
  4 25  1  0
  7 26  1  0
  8 27  1  0
 10 28  1  0
 12 29  1  0
 13 30  1  0
 15 31  1  0
 16 32  1  0
M  END
>  <mol_id>  (22) 
Z5020307425

>  <drugclip_rank>  (22) 
22

>  <conformer>  (22) 
2

>  <align_rmsd>  (22) 
0.037

$$$$
R035-0073
     RDKit          3D

 39 40  0  0  0  0  0  0  0  0999 V2000
   -0.6592   -0.7833    1.1356 C   0  0  0  0  0  0  0  0  0  0  0  0
   -1.3859   -1.9703    1.0246 C   0  0  0  0  0  0  0  0  0  0  0  0
   -2.4180   -2.0601    0.0974 C   0  0  0  0  0  0  0  0  0  0  0  0
   -3.1378   -3.2150   -0.0242 O   0  0  0  0  0  0  0  0  0  0  0  0
   -2.7392   -0.9786   -0.7243 C   0  0  0  0  0  0  0  0  0  0  0  0
   -3.8557   -1.0793   -1.7235 C   0  0  0  0  0  0  0  0  0  0  0  0
   -1.9982    0.2099   -0.6036 C   0  0  0  0  0  0  0  0  0  0  0  0
   -0.9448    0.3314    0.3215 C   0  0  0  0  0  0  0  0  0  0  0  0
   -0.1144    1.6287    0.4840 C   0  0  0  0  0  0  0  0  0  0  0  0
   -0.4198    2.7052   -0.5905 C   0  0  0  0  0  0  0  0  0  0  0  0
   -0.5393    2.2475    1.8418 C   0  0  0  0  0  0  0  0  0  0  0  0
    1.4031    1.3344    0.3829 C   0  0  0  0  0  0  0  0  0  0  0  0
    1.9031    0.6391   -0.7404 C   0  0  0  0  0  0  0  0  0  0  0  0
    3.2687    0.3510   -0.8873 C   0  0  0  0  0  0  0  0  0  0  0  0
    3.7623   -0.3971   -2.0911 C   0  0  0  0  0  0  0  0  0  0  0  0
    4.1503    0.7716    0.1076 C   0  0  0  0  0  0  0  0  0  0  0  0
    5.4806    0.4934   -0.0317 O   0  0  0  0  0  0  0  0  0  0  0  0
    3.6898    1.4629    1.2241 C   0  0  0  0  0  0  0  0  0  0  0  0
    2.3263    1.7426    1.3590 C   0  0  0  0  0  0  0  0  0  0  0  0
    0.1487   -0.7360    1.8639 H   0  0  0  0  0  0  0  0  0  0  0  0
   -1.1292   -2.8070    1.6663 H   0  0  0  0  0  0  0  0  0  0  0  0
   -2.7812   -3.8680    0.5993 H   0  0  0  0  0  0  0  0  0  0  0  0
   -3.9817   -0.1458   -2.2819 H   0  0  0  0  0  0  0  0  0  0  0  0
   -4.8017   -1.2917   -1.2149 H   0  0  0  0  0  0  0  0  0  0  0  0
   -3.6460   -1.8735   -2.4472 H   0  0  0  0  0  0  0  0  0  0  0  0
   -2.2637    1.0417   -1.2506 H   0  0  0  0  0  0  0  0  0  0  0  0
   -1.4586    3.0518   -0.5332 H   0  0  0  0  0  0  0  0  0  0  0  0
    0.2193    3.5875   -0.4582 H   0  0  0  0  0  0  0  0  0  0  0  0
   -0.2506    2.3354   -1.6088 H   0  0  0  0  0  0  0  0  0  0  0  0
   -0.0690    3.2243    2.0067 H   0  0  0  0  0  0  0  0  0  0  0  0
   -1.6247    2.4040    1.8820 H   0  0  0  0  0  0  0  0  0  0  0  0
   -0.2752    1.6061    2.6911 H   0  0  0  0  0  0  0  0  0  0  0  0
    1.2112    0.3077   -1.5143 H   0  0  0  0  0  0  0  0  0  0  0  0
    4.4845    0.2107   -2.6457 H   0  0  0  0  0  0  0  0  0  0  0  0
    2.9433   -0.6450   -2.7744 H   0  0  0  0  0  0  0  0  0  0  0  0
    4.2361   -1.3357   -1.7859 H   0  0  0  0  0  0  0  0  0  0  0  0
    5.9553    0.8545    0.7339 H   0  0  0  0  0  0  0  0  0  0  0  0
    4.3735    1.7939    1.9997 H   0  0  0  0  0  0  0  0  0  0  0  0
    2.0103    2.2875    2.2440 H   0  0  0  0  0  0  0  0  0  0  0  0
  1  2  2  0
  2  3  1  0
  3  4  1  0
  3  5  2  0
  5  6  1  0
  5  7  1  0
  7  8  2  0
  8  9  1  0
  9 10  1  0
  9 11  1  0
  9 12  1  0
 12 13  2  0
 13 14  1  0
 14 15  1  0
 14 16  2  0
 16 17  1  0
 16 18  1  0
 18 19  2  0
  8  1  1  0
 19 12  1  0
  1 20  1  0
  2 21  1  0
  4 22  1  0
  6 23  1  0
  6 24  1  0
  6 25  1  0
  7 26  1  0
 10 27  1  0
 10 28  1  0
 10 29  1  0
 11 30  1  0
 11 31  1  0
 11 32  1  0
 13 33  1  0
 15 34  1  0
 15 35  1  0
 15 36  1  0
 17 37  1  0
 18 38  1  0
 19 39  1  0
M  END
>  <mol_id>  (23) 
R035-0073

>  <drugclip_rank>  (23) 
23

>  <conformer>  (23) 
0

>  <align_rmsd>  (23) 
0.423

$$$$
Z5020304953
     RDKit          3D

 29 31  0  0  0  0  0  0  0  0999 V2000
   -2.4763    2.5993   -0.0708 C   0  0  0  0  0  0  0  0  0  0  0  0
   -2.8948    1.1693    0.0537 C   0  0  0  0  0  0  0  0  0  0  0  0
   -4.5511    0.8043    0.3186 S   0  0  0  0  0  0  0  0  0  0  0  0
   -4.2534   -0.8759    0.3147 C   0  0  0  0  0  0  0  0  0  0  0  0
   -2.9210   -1.1618    0.1262 C   0  0  0  0  0  0  0  0  0  0  0  0
   -2.1235    0.0188   -0.0103 C   0  0  0  0  0  0  0  0  0  0  0  0
   -0.6830    0.0525   -0.2175 C   0  0  0  0  0  0  0  0  0  0  0  0
   -0.1372   -0.4596   -1.3966 C   0  0  0  0  0  0  0  0  0  0  0  0
    1.2448   -0.4352   -1.5978 C   0  0  0  0  0  0  0  0  0  0  0  0
    0.1631    0.5783    0.7670 C   0  0  0  0  0  0  0  0  0  0  0  0
    1.5546    0.6088    0.5781 C   0  0  0  0  0  0  0  0  0  0  0  0
    2.1022    0.0961   -0.6217 C   0  0  0  0  0  0  0  0  0  0  0  0
    2.4146    1.1368    1.5561 C   0  0  0  0  0  0  0  0  0  0  0  0
    3.7964    1.1616    1.3554 C   0  0  0  0  0  0  0  0  0  0  0  0
    4.3221    0.6565    0.1729 C   0  0  0  0  0  0  0  0  0  0  0  0
    3.4922    0.1276   -0.8101 C   0  0  0  0  0  0  0  0  0  0  0  0
    5.6650    0.6605   -0.0654 O   0  0  0  0  0  0  0  0  0  0  0  0
   -3.3155    3.2524   -0.3326 H   0  0  0  0  0  0  0  0  0  0  0  0
   -2.0537    2.9521    0.8756 H   0  0  0  0  0  0  0  0  0  0  0  0
   -1.7189    2.7166   -0.8529 H   0  0  0  0  0  0  0  0  0  0  0  0
   -5.0675   -1.5740    0.4523 H   0  0  0  0  0  0  0  0  0  0  0  0
   -2.5302   -2.1719    0.0983 H   0  0  0  0  0  0  0  0  0  0  0  0
   -0.7820   -0.8726   -2.1688 H   0  0  0  0  0  0  0  0  0  0  0  0
    1.6487   -0.8347   -2.5257 H   0  0  0  0  0  0  0  0  0  0  0  0
   -0.2669    0.9613    1.6904 H   0  0  0  0  0  0  0  0  0  0  0  0
    2.0106    1.5337    2.4849 H   0  0  0  0  0  0  0  0  0  0  0  0
    4.4376    1.5751    2.1271 H   0  0  0  0  0  0  0  0  0  0  0  0
    3.9374   -0.2599   -1.7230 H   0  0  0  0  0  0  0  0  0  0  0  0
    6.1154    1.0530    0.7004 H   0  0  0  0  0  0  0  0  0  0  0  0
  1  2  1  0
  2  3  1  0
  3  4  1  0
  4  5  2  0
  5  6  1  0
  6  7  1  0
  7  8  2  0
  8  9  1  0
  7 10  1  0
 10 11  2  0
 11 12  1  0
 11 13  1  0
 13 14  2  0
 14 15  1  0
 15 16  2  0
 15 17  1  0
  6  2  2  0
 12  9  2  0
 16 12  1  0
  1 18  1  0
  1 19  1  0
  1 20  1  0
  4 21  1  0
  5 22  1  0
  8 23  1  0
  9 24  1  0
 10 25  1  0
 13 26  1  0
 14 27  1  0
 16 28  1  0
 17 29  1  0
M  END
>  <mol_id>  (24) 
Z5020304953

>  <drugclip_rank>  (24) 
24

>  <conformer>  (24) 
0

>  <align_rmsd>  (24) 
0.04

$$$$
STK803083
     RDKit          3D

 28 29  0  0  0  0  0  0  0  0999 V2000
   -1.7754   -0.5235   -0.8905 C   0  0  0  0  0  0  0  0  0  0  0  0
   -2.6360   -1.6205   -0.8176 C   0  0  0  0  0  0  0  0  0  0  0  0
   -2.5014   -2.5227    0.2337 C   0  0  0  0  0  0  0  0  0  0  0  0
   -3.3189   -3.6083    0.3448 O   0  0  0  0  0  0  0  0  0  0  0  0
   -1.5314   -2.3447    1.2168 C   0  0  0  0  0  0  0  0  0  0  0  0
   -0.6749   -1.2468    1.1437 C   0  0  0  0  0  0  0  0  0  0  0  0
    0.2521   -1.0453    2.1266 O   0  0  0  0  0  0  0  0  0  0  0  0
   -0.7790   -0.3445    0.0793 C   0  0  0  0  0  0  0  0  0  0  0  0
    0.0895    0.8458   -0.0426 C   0  0  0  0  0  0  0  0  0  0  0  0
   -0.4419    1.9415   -0.2331 O   0  0  0  0  0  0  0  0  0  0  0  0
    1.5742    0.7710    0.0244 C   0  0  0  0  0  0  0  0  0  0  0  0
    2.3149    1.9361    0.2870 C   0  0  0  0  0  0  0  0  0  0  0  0
    1.7320    3.1617    0.4848 O   0  0  0  0  0  0  0  0  0  0  0  0
    3.7072    1.9023    0.3531 C   0  0  0  0  0  0  0  0  0  0  0  0
    4.3668    0.6988    0.1334 C   0  0  0  0  0  0  0  0  0  0  0  0
    5.7267    0.6147    0.1837 O   0  0  0  0  0  0  0  0  0  0  0  0
    3.6572   -0.4618   -0.1547 C   0  0  0  0  0  0  0  0  0  0  0  0
    2.2611   -0.4277   -0.2157 C   0  0  0  0  0  0  0  0  0  0  0  0
   -1.8817    0.1950   -1.7011 H   0  0  0  0  0  0  0  0  0  0  0  0
   -3.3997   -1.7483   -1.5788 H   0  0  0  0  0  0  0  0  0  0  0  0
   -3.9616   -3.5951   -0.3844 H   0  0  0  0  0  0  0  0  0  0  0  0
   -1.4662   -3.0625    2.0286 H   0  0  0  0  0  0  0  0  0  0  0  0
    0.1268   -1.7066    2.8288 H   0  0  0  0  0  0  0  0  0  0  0  0
    0.7737    3.0673    0.2785 H   0  0  0  0  0  0  0  0  0  0  0  0
    4.2494    2.8175    0.5666 H   0  0  0  0  0  0  0  0  0  0  0  0
    6.0816    1.4945    0.3959 H   0  0  0  0  0  0  0  0  0  0  0  0
    4.1902   -1.3920   -0.3330 H   0  0  0  0  0  0  0  0  0  0  0  0
    1.7320   -1.3456   -0.4535 H   0  0  0  0  0  0  0  0  0  0  0  0
  1  2  2  0
  2  3  1  0
  3  4  1  0
  3  5  2  0
  5  6  1  0
  6  7  1  0
  6  8  2  0
  8  9  1  0
  9 10  2  0
  9 11  1  0
 11 12  2  0
 12 13  1  0
 12 14  1  0
 14 15  2  0
 15 16  1  0
 15 17  1  0
 17 18  2  0
  8  1  1  0
 18 11  1  0
  1 19  1  0
  2 20  1  0
  4 21  1  0
  5 22  1  0
  7 23  1  0
 13 24  1  0
 14 25  1  0
 16 26  1  0
 17 27  1  0
 18 28  1  0
M  END
>  <mol_id>  (25) 
STK803083

>  <drugclip_rank>  (25) 
25

>  <conformer>  (25) 
0

>  <align_rmsd>  (25) 
0.858

$$$$
STK025759
     RDKit          3D

 38 39  0  0  0  0  0  0  0  0999 V2000
    2.4118    1.1299    1.5511 C   0  0  0  0  0  0  0  0  0  0  0  0
    3.7954    1.1564    1.3535 C   0  0  0  0  0  0  0  0  0  0  0  0
    4.3245    0.6561    0.1717 C   0  0  0  0  0  0  0  0  0  0  0  0
    5.6666    0.6601   -0.0664 O   0  0  0  0  0  0  0  0  0  0  0  0
    3.4929    0.1327   -0.8076 C   0  0  0  0  0  0  0  0  0  0  0  0
    2.1096    0.1076   -0.6072 C   0  0  0  0  0  0  0  0  0  0  0  0
    1.5440    0.6067    0.5739 C   0  0  0  0  0  0  0  0  0  0  0  0
    0.0434    0.6018    0.8457 C   0  0  0  0  0  0  0  0  0  0  0  0
   -0.7657    1.4577   -0.1467 C   0  0  0  0  0  0  0  0  0  0  0  0
   -1.2491    0.7219   -1.3966 C   0  0  0  0  0  0  0  0  0  0  0  0
   -1.9315   -0.6205   -1.0895 C   0  0  0  0  0  0  0  0  0  0  0  0
   -0.9930   -1.4955   -0.2470 C   0  0  0  0  0  0  0  0  0  0  0  0
   -0.5303   -0.8136    1.0392 C   0  0  0  0  0  0  0  0  0  0  0  0
   -3.3208   -0.3974   -0.4513 C   0  0  0  0  0  0  0  0  0  0  0  0
   -4.1304   -1.6864   -0.2860 C   0  0  0  0  0  0  0  0  0  0  0  0
   -5.5406   -1.3954    0.2059 C   0  0  0  0  0  0  0  0  0  0  0  0
    2.0134    1.5250    2.4837 H   0  0  0  0  0  0  0  0  0  0  0  0
    4.4341    1.5677    2.1283 H   0  0  0  0  0  0  0  0  0  0  0  0
    6.1136    1.0530    0.7007 H   0  0  0  0  0  0  0  0  0  0  0  0
    3.9175   -0.2574   -1.7282 H   0  0  0  0  0  0  0  0  0  0  0  0
    1.4930   -0.3119   -1.3940 H   0  0  0  0  0  0  0  0  0  0  0  0
   -0.0793    1.1003    1.8189 H   0  0  0  0  0  0  0  0  0  0  0  0
   -0.1962    2.3469   -0.4447 H   0  0  0  0  0  0  0  0  0  0  0  0
   -1.6514    1.8370    0.3800 H   0  0  0  0  0  0  0  0  0  0  0  0
   -0.4041    0.5485   -2.0711 H   0  0  0  0  0  0  0  0  0  0  0  0
   -1.9366    1.3724   -1.9516 H   0  0  0  0  0  0  0  0  0  0  0  0
   -2.0939   -1.1321   -2.0479 H   0  0  0  0  0  0  0  0  0  0  0  0
   -0.1192   -1.7635   -0.8512 H   0  0  0  0  0  0  0  0  0  0  0  0
   -1.4700   -2.4495    0.0013 H   0  0  0  0  0  0  0  0  0  0  0  0
    0.1950   -1.4576    1.5522 H   0  0  0  0  0  0  0  0  0  0  0  0
   -1.3938   -0.7429    1.7134 H   0  0  0  0  0  0  0  0  0  0  0  0
   -3.8901    0.2902   -1.0904 H   0  0  0  0  0  0  0  0  0  0  0  0
   -3.2282    0.0945    0.5235 H   0  0  0  0  0  0  0  0  0  0  0  0
   -4.1869   -2.2179   -1.2427 H   0  0  0  0  0  0  0  0  0  0  0  0
   -3.6440   -2.3538    0.4328 H   0  0  0  0  0  0  0  0  0  0  0  0
   -5.5205   -0.8869    1.1751 H   0  0  0  0  0  0  0  0  0  0  0  0
   -6.1009   -2.3283    0.3230 H   0  0  0  0  0  0  0  0  0  0  0  0
   -6.0814   -0.7618   -0.5042 H   0  0  0  0  0  0  0  0  0  0  0  0
  1  2  2  0
  2  3  1  0
  3  4  1  0
  3  5  2  0
  5  6  1  0
  6  7  2  0
  7  8  1  0
  8  9  1  0
  9 10  1  0
 10 11  1  0
 11 12  1  0
 12 13  1  0
 11 14  1  0
 14 15  1  0
 15 16  1  0
  7  1  1  0
 13  8  1  0
  1 17  1  0
  2 18  1  0
  4 19  1  0
  5 20  1  0
  6 21  1  0
  8 22  1  0
  9 23  1  0
  9 24  1  0
 10 25  1  0
 10 26  1  0
 11 27  1  0
 12 28  1  0
 12 29  1  0
 13 30  1  0
 13 31  1  0
 14 32  1  0
 14 33  1  0
 15 34  1  0
 15 35  1  0
 16 36  1  0
 16 37  1  0
 16 38  1  0
M  END
>  <mol_id>  (26) 
STK025759

>  <drugclip_rank>  (26) 
26

>  <conformer>  (26) 
5

>  <align_rmsd>  (26) 
0.041

$$$$
0417-1650
     RDKit          3D

 43 46  0  0  0  0  0  0  0  0999 V2000
    2.4109    1.1299    1.5484 C   0  0  0  0  0  0  0  0  0  0  0  0
    3.7955    1.1566    1.3512 C   0  0  0  0  0  0  0  0  0  0  0  0
    4.3256    0.6560    0.1715 C   0  0  0  0  0  0  0  0  0  0  0  0
    5.6674    0.6601   -0.0665 O   0  0  0  0  0  0  0  0  0  0  0  0
    3.4937    0.1330   -0.8060 C   0  0  0  0  0  0  0  0  0  0  0  0
    2.1092    0.1080   -0.6054 C   0  0  0  0  0  0  0  0  0  0  0  0
    1.5333    0.6054    0.5766 C   0  0  0  0  0  0  0  0  0  0  0  0
    0.0152    0.5945    0.8313 C   0  0  0  0  0  0  0  0  0  0  0  0
   -0.8130   -0.0242   -0.3358 C   0  0  0  0  0  0  0  0  0  0  0  0
   -2.3297   -0.0180   -0.0370 C   0  0  0  0  0  0  0  0  0  0  0  0
   -3.1018   -0.6373   -1.2070 C   0  0  0  0  0  0  0  0  0  0  0  0
   -2.7839    1.4400    0.1859 C   0  0  0  0  0  0  0  0  0  0  0  0
   -2.0119    2.0765    1.3610 C   0  0  0  0  0  0  0  0  0  0  0  0
   -0.4992    2.0487    1.0397 C   0  0  0  0  0  0  0  0  0  0  0  0
   -2.4787    3.5200    1.5769 C   0  0  0  0  0  0  0  0  0  0  0  0
   -2.2649    1.2400    2.6346 C   0  0  0  0  0  0  0  0  0  0  0  0
   -1.8076   -0.2111    2.4233 C   0  0  0  0  0  0  0  0  0  0  0  0
   -0.3033   -0.2319    2.1099 C   0  0  0  0  0  0  0  0  0  0  0  0
   -2.5840   -0.8256    1.2521 C   0  0  0  0  0  0  0  0  0  0  0  0
    2.0230    1.5297    2.4830 H   0  0  0  0  0  0  0  0  0  0  0  0
    4.4331    1.5695    2.1260 H   0  0  0  0  0  0  0  0  0  0  0  0
    6.1144    1.0530    0.7007 H   0  0  0  0  0  0  0  0  0  0  0  0
    3.9176   -0.2569   -1.7272 H   0  0  0  0  0  0  0  0  0  0  0  0
    1.5024   -0.3120   -1.4022 H   0  0  0  0  0  0  0  0  0  0  0  0
   -0.4891   -1.0583   -0.5189 H   0  0  0  0  0  0  0  0  0  0  0  0
   -0.6294    0.5341   -1.2642 H   0  0  0  0  0  0  0  0  0  0  0  0
   -2.7912   -1.6733   -1.3817 H   0  0  0  0  0  0  0  0  0  0  0  0
   -2.9322   -0.0774   -2.1333 H   0  0  0  0  0  0  0  0  0  0  0  0
   -4.1799   -0.6405   -1.0115 H   0  0  0  0  0  0  0  0  0  0  0  0
   -3.8633    1.4686    0.3879 H   0  0  0  0  0  0  0  0  0  0  0  0
   -2.6236    2.0267   -0.7288 H   0  0  0  0  0  0  0  0  0  0  0  0
   -0.2954    2.6461    0.1399 H   0  0  0  0  0  0  0  0  0  0  0  0
    0.0438    2.5397    1.8578 H   0  0  0  0  0  0  0  0  0  0  0  0
   -3.5496    3.5593    1.8046 H   0  0  0  0  0  0  0  0  0  0  0  0
   -1.9432    3.9884    2.4101 H   0  0  0  0  0  0  0  0  0  0  0  0
   -2.3046    4.1295    0.6833 H   0  0  0  0  0  0  0  0  0  0  0  0
   -1.7290    1.6753    3.4880 H   0  0  0  0  0  0  0  0  0  0  0  0
   -3.3317    1.2556    2.8930 H   0  0  0  0  0  0  0  0  0  0  0  0
   -1.9991   -0.7914    3.3332 H   0  0  0  0  0  0  0  0  0  0  0  0
    0.0346   -1.2691    1.9816 H   0  0  0  0  0  0  0  0  0  0  0  0
    0.2375    0.1601    2.9803 H   0  0  0  0  0  0  0  0  0  0  0  0
   -3.6562   -0.8406    1.4867 H   0  0  0  0  0  0  0  0  0  0  0  0
   -2.2780   -1.8707    1.1139 H   0  0  0  0  0  0  0  0  0  0  0  0
  1  2  2  0
  2  3  1  0
  3  4  1  0
  3  5  2  0
  5  6  1  0
  6  7  2  0
  7  8  1  0
  8  9  1  0
  9 10  1  0
 10 11  1  0
 10 12  1  0
 12 13  1  0
 13 14  1  0
 13 15  1  0
 13 16  1  0
 16 17  1  0
 17 18  1  0
 17 19  1  0
  7  1  1  0
 14  8  1  0
 18  8  1  0
 19 10  1  0
  1 20  1  0
  2 21  1  0
  4 22  1  0
  5 23  1  0
  6 24  1  0
  9 25  1  0
  9 26  1  0
 11 27  1  0
 11 28  1  0
 11 29  1  0
 12 30  1  0
 12 31  1  0
 14 32  1  0
 14 33  1  0
 15 34  1  0
 15 35  1  0
 15 36  1  0
 16 37  1  0
 16 38  1  0
 17 39  1  0
 18 40  1  0
 18 41  1  0
 19 42  1  0
 19 43  1  0
M  END
>  <mol_id>  (27) 
0417-1650

>  <drugclip_rank>  (27) 
27

>  <conformer>  (27) 
0

>  <align_rmsd>  (27) 
0.041

$$$$
OSSL_302895
     RDKit          3D

 43 46  0  0  0  0  0  0  0  0999 V2000
    2.4109    1.1299    1.5484 C   0  0  0  0  0  0  0  0  0  0  0  0
    3.7955    1.1566    1.3512 C   0  0  0  0  0  0  0  0  0  0  0  0
    4.3256    0.6560    0.1715 C   0  0  0  0  0  0  0  0  0  0  0  0
    5.6674    0.6601   -0.0665 O   0  0  0  0  0  0  0  0  0  0  0  0
    3.4937    0.1330   -0.8060 C   0  0  0  0  0  0  0  0  0  0  0  0
    2.1092    0.1080   -0.6054 C   0  0  0  0  0  0  0  0  0  0  0  0
    1.5333    0.6054    0.5766 C   0  0  0  0  0  0  0  0  0  0  0  0
    0.0152    0.5945    0.8313 C   0  0  0  0  0  0  0  0  0  0  0  0
   -0.8130   -0.0242   -0.3358 C   0  0  0  0  0  0  0  0  0  0  0  0
   -2.3297   -0.0180   -0.0370 C   0  0  0  0  0  0  0  0  0  0  0  0
   -3.1018   -0.6373   -1.2070 C   0  0  0  0  0  0  0  0  0  0  0  0
   -2.7839    1.4400    0.1859 C   0  0  0  0  0  0  0  0  0  0  0  0
   -2.0119    2.0765    1.3610 C   0  0  0  0  0  0  0  0  0  0  0  0
   -0.4992    2.0487    1.0397 C   0  0  0  0  0  0  0  0  0  0  0  0
   -2.4787    3.5200    1.5769 C   0  0  0  0  0  0  0  0  0  0  0  0
   -2.2649    1.2400    2.6346 C   0  0  0  0  0  0  0  0  0  0  0  0
   -1.8076   -0.2111    2.4233 C   0  0  0  0  0  0  0  0  0  0  0  0
   -0.3033   -0.2319    2.1099 C   0  0  0  0  0  0  0  0  0  0  0  0
   -2.5840   -0.8256    1.2521 C   0  0  0  0  0  0  0  0  0  0  0  0
    2.0230    1.5297    2.4830 H   0  0  0  0  0  0  0  0  0  0  0  0
    4.4331    1.5695    2.1260 H   0  0  0  0  0  0  0  0  0  0  0  0
    6.1144    1.0530    0.7007 H   0  0  0  0  0  0  0  0  0  0  0  0
    3.9176   -0.2569   -1.7272 H   0  0  0  0  0  0  0  0  0  0  0  0
    1.5024   -0.3120   -1.4022 H   0  0  0  0  0  0  0  0  0  0  0  0
   -0.4891   -1.0583   -0.5189 H   0  0  0  0  0  0  0  0  0  0  0  0
   -0.6294    0.5341   -1.2642 H   0  0  0  0  0  0  0  0  0  0  0  0
   -2.7912   -1.6733   -1.3817 H   0  0  0  0  0  0  0  0  0  0  0  0
   -2.9322   -0.0774   -2.1333 H   0  0  0  0  0  0  0  0  0  0  0  0
   -4.1799   -0.6405   -1.0115 H   0  0  0  0  0  0  0  0  0  0  0  0
   -3.8633    1.4686    0.3879 H   0  0  0  0  0  0  0  0  0  0  0  0
   -2.6236    2.0267   -0.7288 H   0  0  0  0  0  0  0  0  0  0  0  0
   -0.2954    2.6461    0.1399 H   0  0  0  0  0  0  0  0  0  0  0  0
    0.0438    2.5397    1.8578 H   0  0  0  0  0  0  0  0  0  0  0  0
   -3.5496    3.5593    1.8046 H   0  0  0  0  0  0  0  0  0  0  0  0
   -1.9432    3.9884    2.4101 H   0  0  0  0  0  0  0  0  0  0  0  0
   -2.3046    4.1295    0.6833 H   0  0  0  0  0  0  0  0  0  0  0  0
   -1.7290    1.6753    3.4880 H   0  0  0  0  0  0  0  0  0  0  0  0
   -3.3317    1.2556    2.8930 H   0  0  0  0  0  0  0  0  0  0  0  0
   -1.9991   -0.7914    3.3332 H   0  0  0  0  0  0  0  0  0  0  0  0
    0.0346   -1.2691    1.9816 H   0  0  0  0  0  0  0  0  0  0  0  0
    0.2375    0.1601    2.9803 H   0  0  0  0  0  0  0  0  0  0  0  0
   -3.6562   -0.8406    1.4867 H   0  0  0  0  0  0  0  0  0  0  0  0
   -2.2780   -1.8707    1.1139 H   0  0  0  0  0  0  0  0  0  0  0  0
  1  2  2  0
  2  3  1  0
  3  4  1  0
  3  5  2  0
  5  6  1  0
  6  7  2  0
  7  8  1  0
  8  9  1  0
  9 10  1  0
 10 11  1  0
 10 12  1  0
 12 13  1  0
 13 14  1  0
 13 15  1  0
 13 16  1  0
 16 17  1  0
 17 18  1  0
 17 19  1  0
  7  1  1  0
 14  8  1  0
 18  8  1  0
 19 10  1  0
  1 20  1  0
  2 21  1  0
  4 22  1  0
  5 23  1  0
  6 24  1  0
  9 25  1  0
  9 26  1  0
 11 27  1  0
 11 28  1  0
 11 29  1  0
 12 30  1  0
 12 31  1  0
 14 32  1  0
 14 33  1  0
 15 34  1  0
 15 35  1  0
 15 36  1  0
 16 37  1  0
 16 38  1  0
 17 39  1  0
 18 40  1  0
 18 41  1  0
 19 42  1  0
 19 43  1  0
M  END
>  <mol_id>  (28) 
OSSL_302895

>  <drugclip_rank>  (28) 
28

>  <conformer>  (28) 
0

>  <align_rmsd>  (28) 
0.041

$$$$
OSSL_331145
     RDKit          3D

 27 28  0  0  0  0  0  0  0  0999 V2000
    2.5293   -0.7263    0.8834 C   0  0  0  0  0  0  0  0  0  0  0  0
    3.8690   -0.6507    0.4928 C   0  0  0  0  0  0  0  0  0  0  0  0
    4.5166    0.5802    0.4714 C   0  0  0  0  0  0  0  0  0  0  0  0
    5.8223    0.6017    0.0806 O   0  0  0  0  0  0  0  0  0  0  0  0
    3.8535    1.7429    0.8469 C   0  0  0  0  0  0  0  0  0  0  0  0
    2.5193    1.6655    1.2422 C   0  0  0  0  0  0  0  0  0  0  0  0
    1.9323    2.8426    1.6282 O   0  0  0  0  0  0  0  0  0  0  0  0
    1.8356    0.4386    1.2399 C   0  0  0  0  0  0  0  0  0  0  0  0
    0.4085    0.3972    1.6525 C   0  0  0  0  0  0  0  0  0  0  0  0
   -0.0156    1.2841    2.3939 O   0  0  0  0  0  0  0  0  0  0  0  0
   -0.5238   -0.6571    1.1904 C   0  0  0  0  0  0  0  0  0  0  0  0
   -0.5188   -1.1092   -0.1345 C   0  0  0  0  0  0  0  0  0  0  0  0
   -1.4259   -2.0926   -0.5331 C   0  0  0  0  0  0  0  0  0  0  0  0
   -2.3390   -2.6038    0.3839 C   0  0  0  0  0  0  0  0  0  0  0  0
   -3.2050   -3.5610   -0.0534 O   0  0  0  0  0  0  0  0  0  0  0  0
   -2.3692   -2.1446    1.6974 C   0  0  0  0  0  0  0  0  0  0  0  0
   -1.4621   -1.1620    2.0999 C   0  0  0  0  0  0  0  0  0  0  0  0
    2.0541   -1.7030    0.9158 H   0  0  0  0  0  0  0  0  0  0  0  0
    4.4096   -1.5509    0.2115 H   0  0  0  0  0  0  0  0  0  0  0  0
    6.1446    1.5179    0.1257 H   0  0  0  0  0  0  0  0  0  0  0  0
    4.3522    2.7066    0.8486 H   0  0  0  0  0  0  0  0  0  0  0  0
    1.0708    2.6203    2.0503 H   0  0  0  0  0  0  0  0  0  0  0  0
    0.1681   -0.6966   -0.8689 H   0  0  0  0  0  0  0  0  0  0  0  0
   -1.4293   -2.4523   -1.5588 H   0  0  0  0  0  0  0  0  0  0  0  0
   -3.7996   -3.8030    0.6758 H   0  0  0  0  0  0  0  0  0  0  0  0
   -3.0872   -2.5305    2.4144 H   0  0  0  0  0  0  0  0  0  0  0  0
   -1.4876   -0.7890    3.1219 H   0  0  0  0  0  0  0  0  0  0  0  0
  1  2  2  0
  2  3  1  0
  3  4  1  0
  3  5  2  0
  5  6  1  0
  6  7  1  0
  6  8  2  0
  8  9  1  0
  9 10  2  0
  9 11  1  0
 11 12  2  0
 12 13  1  0
 13 14  2  0
 14 15  1  0
 14 16  1  0
 16 17  2  0
  8  1  1  0
 17 11  1  0
  1 18  1  0
  2 19  1  0
  4 20  1  0
  5 21  1  0
  7 22  1  0
 12 23  1  0
 13 24  1  0
 15 25  1  0
 16 26  1  0
 17 27  1  0
M  END
>  <mol_id>  (29) 
OSSL_331145

>  <drugclip_rank>  (29) 
29

>  <conformer>  (29) 
0

>  <align_rmsd>  (29) 
0.546

$$$$
00CS-0026
     RDKit          3D

 38 39  0  0  0  0  0  0  0  0999 V2000
    2.4118    1.1299    1.5511 C   0  0  0  0  0  0  0  0  0  0  0  0
    3.7954    1.1564    1.3535 C   0  0  0  0  0  0  0  0  0  0  0  0
    4.3245    0.6561    0.1717 C   0  0  0  0  0  0  0  0  0  0  0  0
    5.6666    0.6601   -0.0664 O   0  0  0  0  0  0  0  0  0  0  0  0
    3.4929    0.1327   -0.8076 C   0  0  0  0  0  0  0  0  0  0  0  0
    2.1096    0.1076   -0.6072 C   0  0  0  0  0  0  0  0  0  0  0  0
    1.5440    0.6067    0.5739 C   0  0  0  0  0  0  0  0  0  0  0  0
    0.0434    0.6018    0.8457 C   0  0  0  0  0  0  0  0  0  0  0  0
   -0.7657    1.4577   -0.1467 C   0  0  0  0  0  0  0  0  0  0  0  0
   -1.2491    0.7219   -1.3966 C   0  0  0  0  0  0  0  0  0  0  0  0
   -1.9315   -0.6205   -1.0895 C   0  0  0  0  0  0  0  0  0  0  0  0
   -0.9930   -1.4955   -0.2470 C   0  0  0  0  0  0  0  0  0  0  0  0
   -0.5303   -0.8136    1.0392 C   0  0  0  0  0  0  0  0  0  0  0  0
   -3.3208   -0.3974   -0.4513 C   0  0  0  0  0  0  0  0  0  0  0  0
   -4.1304   -1.6864   -0.2860 C   0  0  0  0  0  0  0  0  0  0  0  0
   -5.5406   -1.3954    0.2059 C   0  0  0  0  0  0  0  0  0  0  0  0
    2.0134    1.5250    2.4837 H   0  0  0  0  0  0  0  0  0  0  0  0
    4.4341    1.5677    2.1283 H   0  0  0  0  0  0  0  0  0  0  0  0
    6.1136    1.0530    0.7007 H   0  0  0  0  0  0  0  0  0  0  0  0
    3.9175   -0.2574   -1.7282 H   0  0  0  0  0  0  0  0  0  0  0  0
    1.4930   -0.3119   -1.3940 H   0  0  0  0  0  0  0  0  0  0  0  0
   -0.0793    1.1003    1.8189 H   0  0  0  0  0  0  0  0  0  0  0  0
   -0.1962    2.3469   -0.4447 H   0  0  0  0  0  0  0  0  0  0  0  0
   -1.6514    1.8370    0.3800 H   0  0  0  0  0  0  0  0  0  0  0  0
   -0.4041    0.5485   -2.0711 H   0  0  0  0  0  0  0  0  0  0  0  0
   -1.9366    1.3724   -1.9516 H   0  0  0  0  0  0  0  0  0  0  0  0
   -2.0939   -1.1321   -2.0479 H   0  0  0  0  0  0  0  0  0  0  0  0
   -0.1192   -1.7635   -0.8512 H   0  0  0  0  0  0  0  0  0  0  0  0
   -1.4700   -2.4495    0.0013 H   0  0  0  0  0  0  0  0  0  0  0  0
    0.1950   -1.4576    1.5522 H   0  0  0  0  0  0  0  0  0  0  0  0
   -1.3938   -0.7429    1.7134 H   0  0  0  0  0  0  0  0  0  0  0  0
   -3.8901    0.2902   -1.0904 H   0  0  0  0  0  0  0  0  0  0  0  0
   -3.2282    0.0945    0.5235 H   0  0  0  0  0  0  0  0  0  0  0  0
   -4.1869   -2.2179   -1.2427 H   0  0  0  0  0  0  0  0  0  0  0  0
   -3.6440   -2.3538    0.4328 H   0  0  0  0  0  0  0  0  0  0  0  0
   -5.5205   -0.8869    1.1751 H   0  0  0  0  0  0  0  0  0  0  0  0
   -6.1009   -2.3283    0.3230 H   0  0  0  0  0  0  0  0  0  0  0  0
   -6.0814   -0.7618   -0.5042 H   0  0  0  0  0  0  0  0  0  0  0  0
  1  2  2  0
  2  3  1  0
  3  4  1  0
  3  5  2  0
  5  6  1  0
  6  7  2  0
  7  8  1  0
  8  9  1  0
  9 10  1  0
 10 11  1  0
 11 12  1  0
 12 13  1  0
 11 14  1  0
 14 15  1  0
 15 16  1  0
  7  1  1  0
 13  8  1  0
  1 17  1  0
  2 18  1  0
  4 19  1  0
  5 20  1  0
  6 21  1  0
  8 22  1  0
  9 23  1  0
  9 24  1  0
 10 25  1  0
 10 26  1  0
 11 27  1  0
 12 28  1  0
 12 29  1  0
 13 30  1  0
 13 31  1  0
 14 32  1  0
 14 33  1  0
 15 34  1  0
 15 35  1  0
 16 36  1  0
 16 37  1  0
 16 38  1  0
M  END
>  <mol_id>  (30) 
00CS-0026

>  <drugclip_rank>  (30) 
30

>  <conformer>  (30) 
5

>  <align_rmsd>  (30) 
0.041

$$$$
Z8849623088
     RDKit          3D

 34 35  0  0  0  0  0  0  0  0999 V2000
   -6.0464   -2.6772    0.9734 C   0  0  0  0  0  0  0  0  0  0  0  0
   -4.5776   -2.3807    0.8035 C   0  0  0  0  0  0  0  0  0  0  0  0
   -3.8509   -3.1634    0.1930 O   0  0  0  0  0  0  0  0  0  0  0  0
   -4.0928   -1.0828    1.4278 C   0  0  0  0  0  0  0  0  0  0  0  0
   -2.6230   -0.8023    1.2380 C   0  0  0  0  0  0  0  0  0  0  0  0
   -2.1729   -0.0939    0.1168 C   0  0  0  0  0  0  0  0  0  0  0  0
   -0.8097    0.1583   -0.0619 C   0  0  0  0  0  0  0  0  0  0  0  0
    0.1322   -0.2941    0.8721 C   0  0  0  0  0  0  0  0  0  0  0  0
   -0.3216   -1.0141    1.9857 C   0  0  0  0  0  0  0  0  0  0  0  0
   -1.6841   -1.2678    2.1671 C   0  0  0  0  0  0  0  0  0  0  0  0
    1.5650   -0.0368    0.6781 C   0  0  0  0  0  0  0  0  0  0  0  0
    2.3350   -0.9783   -0.0294 C   0  0  0  0  0  0  0  0  0  0  0  0
    3.6992   -0.7794   -0.2406 C   0  0  0  0  0  0  0  0  0  0  0  0
    4.3072    0.3642    0.2539 C   0  0  0  0  0  0  0  0  0  0  0  0
    5.6423    0.5227    0.0266 O   0  0  0  0  0  0  0  0  0  0  0  0
    3.5735    1.3147    0.9579 C   0  0  0  0  0  0  0  0  0  0  0  0
    2.1974    1.1252    1.1777 C   0  0  0  0  0  0  0  0  0  0  0  0
    1.4259    2.1686    1.9417 C   0  0  0  0  0  0  0  0  0  0  0  0
   -6.6365   -1.8854    0.5053 H   0  0  0  0  0  0  0  0  0  0  0  0
   -6.2851   -2.7477    2.0375 H   0  0  0  0  0  0  0  0  0  0  0  0
   -6.2892   -3.6293    0.4934 H   0  0  0  0  0  0  0  0  0  0  0  0
   -4.6772   -0.2593    1.0001 H   0  0  0  0  0  0  0  0  0  0  0  0
   -4.3206   -1.1142    2.5001 H   0  0  0  0  0  0  0  0  0  0  0  0
   -2.8768    0.2600   -0.6327 H   0  0  0  0  0  0  0  0  0  0  0  0
   -0.4805    0.7064   -0.9423 H   0  0  0  0  0  0  0  0  0  0  0  0
    0.3917   -1.3885    2.7171 H   0  0  0  0  0  0  0  0  0  0  0  0
   -2.0025   -1.8402    3.0352 H   0  0  0  0  0  0  0  0  0  0  0  0
    1.8650   -1.8787   -0.4216 H   0  0  0  0  0  0  0  0  0  0  0  0
    4.2811   -1.5144   -0.7887 H   0  0  0  0  0  0  0  0  0  0  0  0
    5.9268    1.3605    0.4263 H   0  0  0  0  0  0  0  0  0  0  0  0
    4.0605    2.2069    1.3406 H   0  0  0  0  0  0  0  0  0  0  0  0
    0.6378    2.5969    1.3143 H   0  0  0  0  0  0  0  0  0  0  0  0
    0.9832    1.7338    2.8433 H   0  0  0  0  0  0  0  0  0  0  0  0
    2.0738    2.9921    2.2609 H   0  0  0  0  0  0  0  0  0  0  0  0
  1  2  1  0
  2  3  2  0
  2  4  1  0
  4  5  1  0
  5  6  2  0
  6  7  1  0
  7  8  2  0
  8  9  1  0
  9 10  2  0
  8 11  1  0
 11 12  2  0
 12 13  1  0
 13 14  2  0
 14 15  1  0
 14 16  1  0
 16 17  2  0
 17 18  1  0
 10  5  1  0
 17 11  1  0
  1 19  1  0
  1 20  1  0
  1 21  1  0
  4 22  1  0
  4 23  1  0
  6 24  1  0
  7 25  1  0
  9 26  1  0
 10 27  1  0
 12 28  1  0
 13 29  1  0
 15 30  1  0
 16 31  1  0
 18 32  1  0
 18 33  1  0
 18 34  1  0
M  END
>  <mol_id>  (31) 
Z8849623088

>  <drugclip_rank>  (31) 
31

>  <conformer>  (31) 
12

>  <align_rmsd>  (31) 
0.606

$$$$
0099-0217
     RDKit          3D

 27 28  0  0  0  0  0  0  0  0999 V2000
    2.5293   -0.7263    0.8834 C   0  0  0  0  0  0  0  0  0  0  0  0
    3.8690   -0.6507    0.4928 C   0  0  0  0  0  0  0  0  0  0  0  0
    4.5166    0.5802    0.4714 C   0  0  0  0  0  0  0  0  0  0  0  0
    5.8223    0.6017    0.0806 O   0  0  0  0  0  0  0  0  0  0  0  0
    3.8535    1.7429    0.8469 C   0  0  0  0  0  0  0  0  0  0  0  0
    2.5193    1.6655    1.2422 C   0  0  0  0  0  0  0  0  0  0  0  0
    1.9323    2.8426    1.6282 O   0  0  0  0  0  0  0  0  0  0  0  0
    1.8356    0.4386    1.2399 C   0  0  0  0  0  0  0  0  0  0  0  0
    0.4085    0.3972    1.6525 C   0  0  0  0  0  0  0  0  0  0  0  0
   -0.0156    1.2841    2.3939 O   0  0  0  0  0  0  0  0  0  0  0  0
   -0.5238   -0.6571    1.1904 C   0  0  0  0  0  0  0  0  0  0  0  0
   -0.5188   -1.1092   -0.1345 C   0  0  0  0  0  0  0  0  0  0  0  0
   -1.4259   -2.0926   -0.5331 C   0  0  0  0  0  0  0  0  0  0  0  0
   -2.3390   -2.6038    0.3839 C   0  0  0  0  0  0  0  0  0  0  0  0
   -3.2050   -3.5610   -0.0534 O   0  0  0  0  0  0  0  0  0  0  0  0
   -2.3692   -2.1446    1.6974 C   0  0  0  0  0  0  0  0  0  0  0  0
   -1.4621   -1.1620    2.0999 C   0  0  0  0  0  0  0  0  0  0  0  0
    2.0541   -1.7030    0.9158 H   0  0  0  0  0  0  0  0  0  0  0  0
    4.4096   -1.5509    0.2115 H   0  0  0  0  0  0  0  0  0  0  0  0
    6.1446    1.5179    0.1257 H   0  0  0  0  0  0  0  0  0  0  0  0
    4.3522    2.7066    0.8486 H   0  0  0  0  0  0  0  0  0  0  0  0
    1.0708    2.6203    2.0503 H   0  0  0  0  0  0  0  0  0  0  0  0
    0.1681   -0.6966   -0.8689 H   0  0  0  0  0  0  0  0  0  0  0  0
   -1.4293   -2.4523   -1.5588 H   0  0  0  0  0  0  0  0  0  0  0  0
   -3.7996   -3.8030    0.6758 H   0  0  0  0  0  0  0  0  0  0  0  0
   -3.0872   -2.5305    2.4144 H   0  0  0  0  0  0  0  0  0  0  0  0
   -1.4876   -0.7890    3.1219 H   0  0  0  0  0  0  0  0  0  0  0  0
  1  2  2  0
  2  3  1  0
  3  4  1  0
  3  5  2  0
  5  6  1  0
  6  7  1  0
  6  8  2  0
  8  9  1  0
  9 10  2  0
  9 11  1  0
 11 12  2  0
 12 13  1  0
 13 14  2  0
 14 15  1  0
 14 16  1  0
 16 17  2  0
  8  1  1  0
 17 11  1  0
  1 18  1  0
  2 19  1  0
  4 20  1  0
  5 21  1  0
  7 22  1  0
 12 23  1  0
 13 24  1  0
 15 25  1  0
 16 26  1  0
 17 27  1  0
M  END
>  <mol_id>  (32) 
0099-0217

>  <drugclip_rank>  (32) 
32

>  <conformer>  (32) 
0

>  <align_rmsd>  (32) 
0.546

$$$$
OSSK_329587
     RDKit          3D

 38 39  0  0  0  0  0  0  0  0999 V2000
    2.4118    1.1299    1.5511 C   0  0  0  0  0  0  0  0  0  0  0  0
    3.7954    1.1564    1.3535 C   0  0  0  0  0  0  0  0  0  0  0  0
    4.3245    0.6561    0.1717 C   0  0  0  0  0  0  0  0  0  0  0  0
    5.6666    0.6601   -0.0664 O   0  0  0  0  0  0  0  0  0  0  0  0
    3.4929    0.1327   -0.8076 C   0  0  0  0  0  0  0  0  0  0  0  0
    2.1096    0.1076   -0.6072 C   0  0  0  0  0  0  0  0  0  0  0  0
    1.5440    0.6067    0.5739 C   0  0  0  0  0  0  0  0  0  0  0  0
    0.0434    0.6018    0.8457 C   0  0  0  0  0  0  0  0  0  0  0  0
   -0.7657    1.4577   -0.1467 C   0  0  0  0  0  0  0  0  0  0  0  0
   -1.2491    0.7219   -1.3966 C   0  0  0  0  0  0  0  0  0  0  0  0
   -1.9315   -0.6205   -1.0895 C   0  0  0  0  0  0  0  0  0  0  0  0
   -0.9930   -1.4955   -0.2470 C   0  0  0  0  0  0  0  0  0  0  0  0
   -0.5303   -0.8136    1.0392 C   0  0  0  0  0  0  0  0  0  0  0  0
   -3.3208   -0.3974   -0.4513 C   0  0  0  0  0  0  0  0  0  0  0  0
   -4.1304   -1.6864   -0.2860 C   0  0  0  0  0  0  0  0  0  0  0  0
   -5.5406   -1.3954    0.2059 C   0  0  0  0  0  0  0  0  0  0  0  0
    2.0134    1.5250    2.4837 H   0  0  0  0  0  0  0  0  0  0  0  0
    4.4341    1.5677    2.1283 H   0  0  0  0  0  0  0  0  0  0  0  0
    6.1136    1.0530    0.7007 H   0  0  0  0  0  0  0  0  0  0  0  0
    3.9175   -0.2574   -1.7282 H   0  0  0  0  0  0  0  0  0  0  0  0
    1.4930   -0.3119   -1.3940 H   0  0  0  0  0  0  0  0  0  0  0  0
   -0.0793    1.1003    1.8189 H   0  0  0  0  0  0  0  0  0  0  0  0
   -0.1962    2.3469   -0.4447 H   0  0  0  0  0  0  0  0  0  0  0  0
   -1.6514    1.8370    0.3800 H   0  0  0  0  0  0  0  0  0  0  0  0
   -0.4041    0.5485   -2.0711 H   0  0  0  0  0  0  0  0  0  0  0  0
   -1.9366    1.3724   -1.9516 H   0  0  0  0  0  0  0  0  0  0  0  0
   -2.0939   -1.1321   -2.0479 H   0  0  0  0  0  0  0  0  0  0  0  0
   -0.1192   -1.7635   -0.8512 H   0  0  0  0  0  0  0  0  0  0  0  0
   -1.4700   -2.4495    0.0013 H   0  0  0  0  0  0  0  0  0  0  0  0
    0.1950   -1.4576    1.5522 H   0  0  0  0  0  0  0  0  0  0  0  0
   -1.3938   -0.7429    1.7134 H   0  0  0  0  0  0  0  0  0  0  0  0
   -3.8901    0.2902   -1.0904 H   0  0  0  0  0  0  0  0  0  0  0  0
   -3.2282    0.0945    0.5235 H   0  0  0  0  0  0  0  0  0  0  0  0
   -4.1869   -2.2179   -1.2427 H   0  0  0  0  0  0  0  0  0  0  0  0
   -3.6440   -2.3538    0.4328 H   0  0  0  0  0  0  0  0  0  0  0  0
   -5.5205   -0.8869    1.1751 H   0  0  0  0  0  0  0  0  0  0  0  0
   -6.1009   -2.3283    0.3230 H   0  0  0  0  0  0  0  0  0  0  0  0
   -6.0814   -0.7618   -0.5042 H   0  0  0  0  0  0  0  0  0  0  0  0
  1  2  2  0
  2  3  1  0
  3  4  1  0
  3  5  2  0
  5  6  1  0
  6  7  2  0
  7  8  1  0
  8  9  1  0
  9 10  1  0
 10 11  1  0
 11 12  1  0
 12 13  1  0
 11 14  1  0
 14 15  1  0
 15 16  1  0
  7  1  1  0
 13  8  1  0
  1 17  1  0
  2 18  1  0
  4 19  1  0
  5 20  1  0
  6 21  1  0
  8 22  1  0
  9 23  1  0
  9 24  1  0
 10 25  1  0
 10 26  1  0
 11 27  1  0
 12 28  1  0
 12 29  1  0
 13 30  1  0
 13 31  1  0
 14 32  1  0
 14 33  1  0
 15 34  1  0
 15 35  1  0
 16 36  1  0
 16 37  1  0
 16 38  1  0
M  END
>  <mol_id>  (33) 
OSSK_329587

>  <drugclip_rank>  (33) 
33

>  <conformer>  (33) 
5

>  <align_rmsd>  (33) 
0.041

$$$$
STK801744
     RDKit          3D

 27 28  0  0  0  0  0  0  0  0999 V2000
    2.5293   -0.7263    0.8834 C   0  0  0  0  0  0  0  0  0  0  0  0
    3.8690   -0.6507    0.4928 C   0  0  0  0  0  0  0  0  0  0  0  0
    4.5166    0.5802    0.4714 C   0  0  0  0  0  0  0  0  0  0  0  0
    5.8223    0.6017    0.0806 O   0  0  0  0  0  0  0  0  0  0  0  0
    3.8535    1.7429    0.8469 C   0  0  0  0  0  0  0  0  0  0  0  0
    2.5193    1.6655    1.2422 C   0  0  0  0  0  0  0  0  0  0  0  0
    1.9323    2.8426    1.6282 O   0  0  0  0  0  0  0  0  0  0  0  0
    1.8356    0.4386    1.2399 C   0  0  0  0  0  0  0  0  0  0  0  0
    0.4085    0.3972    1.6525 C   0  0  0  0  0  0  0  0  0  0  0  0
   -0.0156    1.2841    2.3939 O   0  0  0  0  0  0  0  0  0  0  0  0
   -0.5238   -0.6571    1.1904 C   0  0  0  0  0  0  0  0  0  0  0  0
   -0.5188   -1.1092   -0.1345 C   0  0  0  0  0  0  0  0  0  0  0  0
   -1.4259   -2.0926   -0.5331 C   0  0  0  0  0  0  0  0  0  0  0  0
   -2.3390   -2.6038    0.3839 C   0  0  0  0  0  0  0  0  0  0  0  0
   -3.2050   -3.5610   -0.0534 O   0  0  0  0  0  0  0  0  0  0  0  0
   -2.3692   -2.1446    1.6974 C   0  0  0  0  0  0  0  0  0  0  0  0
   -1.4621   -1.1620    2.0999 C   0  0  0  0  0  0  0  0  0  0  0  0
    2.0541   -1.7030    0.9158 H   0  0  0  0  0  0  0  0  0  0  0  0
    4.4096   -1.5509    0.2115 H   0  0  0  0  0  0  0  0  0  0  0  0
    6.1446    1.5179    0.1257 H   0  0  0  0  0  0  0  0  0  0  0  0
    4.3522    2.7066    0.8486 H   0  0  0  0  0  0  0  0  0  0  0  0
    1.0708    2.6203    2.0503 H   0  0  0  0  0  0  0  0  0  0  0  0
    0.1681   -0.6966   -0.8689 H   0  0  0  0  0  0  0  0  0  0  0  0
   -1.4293   -2.4523   -1.5588 H   0  0  0  0  0  0  0  0  0  0  0  0
   -3.7996   -3.8030    0.6758 H   0  0  0  0  0  0  0  0  0  0  0  0
   -3.0872   -2.5305    2.4144 H   0  0  0  0  0  0  0  0  0  0  0  0
   -1.4876   -0.7890    3.1219 H   0  0  0  0  0  0  0  0  0  0  0  0
  1  2  2  0
  2  3  1  0
  3  4  1  0
  3  5  2  0
  5  6  1  0
  6  7  1  0
  6  8  2  0
  8  9  1  0
  9 10  2  0
  9 11  1  0
 11 12  2  0
 12 13  1  0
 13 14  2  0
 14 15  1  0
 14 16  1  0
 16 17  2  0
  8  1  1  0
 17 11  1  0
  1 18  1  0
  2 19  1  0
  4 20  1  0
  5 21  1  0
  7 22  1  0
 12 23  1  0
 13 24  1  0
 15 25  1  0
 16 26  1  0
 17 27  1  0
M  END
>  <mol_id>  (34) 
STK801744

>  <drugclip_rank>  (34) 
34

>  <conformer>  (34) 
0

>  <align_rmsd>  (34) 
0.546

$$$$
Z56903635
     RDKit          3D

 39 41  0  0  0  0  0  0  0  0999 V2000
   -0.7059   -0.7059    1.2043 C   0  0  0  0  0  0  0  0  0  0  0  0
   -1.4093   -1.9088    1.0988 C   0  0  0  0  0  0  0  0  0  0  0  0
   -2.3668   -2.0522    0.1048 C   0  0  0  0  0  0  0  0  0  0  0  0
   -3.0780   -3.2058   -0.0387 O   0  0  0  0  0  0  0  0  0  0  0  0
   -2.6278   -1.0155   -0.7794 C   0  0  0  0  0  0  0  0  0  0  0  0
   -1.9223    0.1876   -0.6751 C   0  0  0  0  0  0  0  0  0  0  0  0
   -0.9448    0.3685    0.3188 C   0  0  0  0  0  0  0  0  0  0  0  0
   -0.1364    1.6865    0.4847 C   0  0  0  0  0  0  0  0  0  0  0  0
   -0.4513    2.7487   -0.6161 C   0  0  0  0  0  0  0  0  0  0  0  0
    0.3392    4.0479   -0.4473 C   0  0  0  0  0  0  0  0  0  0  0  0
    0.4451    4.4535    1.0023 C   0  0  0  0  0  0  0  0  0  0  0  0
    1.2364    5.3219    1.3687 O   0  0  0  0  0  0  0  0  0  0  0  0
   -0.5231    3.8236    1.9696 C   0  0  0  0  0  0  0  0  0  0  0  0
   -0.6086    2.3002    1.8469 C   0  0  0  0  0  0  0  0  0  0  0  0
    1.3826    1.3686    0.4020 C   0  0  0  0  0  0  0  0  0  0  0  0
    2.3080    1.7468    1.3916 C   0  0  0  0  0  0  0  0  0  0  0  0
    3.6709    1.4544    1.2597 C   0  0  0  0  0  0  0  0  0  0  0  0
    4.1250    0.7754    0.1371 C   0  0  0  0  0  0  0  0  0  0  0  0
    5.4437    0.4738   -0.0283 O   0  0  0  0  0  0  0  0  0  0  0  0
    3.2405    0.3845   -0.8551 C   0  0  0  0  0  0  0  0  0  0  0  0
    1.8821    0.6810   -0.7258 C   0  0  0  0  0  0  0  0  0  0  0  0
    0.0474   -0.6144    1.9854 H   0  0  0  0  0  0  0  0  0  0  0  0
   -1.1925   -2.7126    1.7949 H   0  0  0  0  0  0  0  0  0  0  0  0
   -2.7723   -3.8416    0.6288 H   0  0  0  0  0  0  0  0  0  0  0  0
   -3.3797   -1.1417   -1.5536 H   0  0  0  0  0  0  0  0  0  0  0  0
   -2.1613    0.9672   -1.3922 H   0  0  0  0  0  0  0  0  0  0  0  0
   -0.2618    2.3586   -1.6244 H   0  0  0  0  0  0  0  0  0  0  0  0
   -1.5211    2.9997   -0.5845 H   0  0  0  0  0  0  0  0  0  0  0  0
    1.3540    3.9289   -0.8423 H   0  0  0  0  0  0  0  0  0  0  0  0
   -0.1509    4.8549   -1.0017 H   0  0  0  0  0  0  0  0  0  0  0  0
   -0.2392    4.0954    2.9922 H   0  0  0  0  0  0  0  0  0  0  0  0
   -1.5054    4.2724    1.7789 H   0  0  0  0  0  0  0  0  0  0  0  0
   -0.0921    1.8307    2.6938 H   0  0  0  0  0  0  0  0  0  0  0  0
   -1.6679    2.0530    2.0152 H   0  0  0  0  0  0  0  0  0  0  0  0
    2.0052    2.2894    2.2827 H   0  0  0  0  0  0  0  0  0  0  0  0
    4.3562    1.7699    2.0406 H   0  0  0  0  0  0  0  0  0  0  0  0
    5.9403    0.8392    0.7220 H   0  0  0  0  0  0  0  0  0  0  0  0
    3.6032   -0.1486   -1.7293 H   0  0  0  0  0  0  0  0  0  0  0  0
    1.2093    0.3594   -1.5193 H   0  0  0  0  0  0  0  0  0  0  0  0
  1  2  2  0
  2  3  1  0
  3  4  1  0
  3  5  2  0
  5  6  1  0
  6  7  2  0
  7  8  1  0
  8  9  1  0
  9 10  1  0
 10 11  1  0
 11 12  2  0
 11 13  1  0
 13 14  1  0
  8 15  1  0
 15 16  2  0
 16 17  1  0
 17 18  2  0
 18 19  1  0
 18 20  1  0
 20 21  2  0
  7  1  1  0
 14  8  1  0
 21 15  1  0
  1 22  1  0
  2 23  1  0
  4 24  1  0
  5 25  1  0
  6 26  1  0
  9 27  1  0
  9 28  1  0
 10 29  1  0
 10 30  1  0
 13 31  1  0
 13 32  1  0
 14 33  1  0
 14 34  1  0
 16 35  1  0
 17 36  1  0
 19 37  1  0
 20 38  1  0
 21 39  1  0
M  END
>  <mol_id>  (35) 
Z56903635

>  <drugclip_rank>  (35) 
35

>  <conformer>  (35) 
4

>  <align_rmsd>  (35) 
0.436

$$$$
Z5020304860
     RDKit          3D

 31 33  0  0  0  0  0  0  0  0999 V2000
   -2.5818    1.1224   -0.7483 C   0  0  0  0  0  0  0  0  0  0  0  0
   -2.8716   -0.3421   -0.5662 C   0  0  0  0  0  0  0  0  0  0  0  0
   -4.1982   -0.7691   -0.4220 C   0  0  0  0  0  0  0  0  0  0  0  0
   -4.4560   -2.1205   -0.2534 C   0  0  0  0  0  0  0  0  0  0  0  0
   -3.4980   -3.0667   -0.2160 N   0  0  0  0  0  0  0  0  0  0  0  0
   -2.2219   -2.6350   -0.3523 C   0  0  0  0  0  0  0  0  0  0  0  0
   -1.8416   -1.3012   -0.5265 C   0  0  0  0  0  0  0  0  0  0  0  0
   -0.4230   -0.9558   -0.6577 C   0  0  0  0  0  0  0  0  0  0  0  0
    0.2268   -1.0621   -1.8935 C   0  0  0  0  0  0  0  0  0  0  0  0
    1.5792   -0.7341   -2.0189 C   0  0  0  0  0  0  0  0  0  0  0  0
    0.3136   -0.5176    0.4544 C   0  0  0  0  0  0  0  0  0  0  0  0
    1.6745   -0.1837    0.3459 C   0  0  0  0  0  0  0  0  0  0  0  0
    2.3151   -0.2934   -0.9094 C   0  0  0  0  0  0  0  0  0  0  0  0
    2.4122    0.2565    1.4581 C   0  0  0  0  0  0  0  0  0  0  0  0
    3.7641    0.5851    1.3355 C   0  0  0  0  0  0  0  0  0  0  0  0
    4.3822    0.4737    0.0966 C   0  0  0  0  0  0  0  0  0  0  0  0
    3.6737    0.0402   -1.0192 C   0  0  0  0  0  0  0  0  0  0  0  0
    5.6999    0.7837   -0.0696 O   0  0  0  0  0  0  0  0  0  0  0  0
   -3.5055    1.7025   -0.8493 H   0  0  0  0  0  0  0  0  0  0  0  0
   -1.9944    1.2890   -1.6568 H   0  0  0  0  0  0  0  0  0  0  0  0
   -2.0379    1.5133    0.1173 H   0  0  0  0  0  0  0  0  0  0  0  0
   -5.0233   -0.0646   -0.4419 H   0  0  0  0  0  0  0  0  0  0  0  0
   -5.4728   -2.4856   -0.1409 H   0  0  0  0  0  0  0  0  0  0  0  0
   -1.4748   -3.4249   -0.3135 H   0  0  0  0  0  0  0  0  0  0  0  0
   -0.3204   -1.3991   -2.7720 H   0  0  0  0  0  0  0  0  0  0  0  0
    2.0548   -0.8256   -2.9932 H   0  0  0  0  0  0  0  0  0  0  0  0
   -0.1853   -0.4364    1.4192 H   0  0  0  0  0  0  0  0  0  0  0  0
    1.9354    0.3458    2.4319 H   0  0  0  0  0  0  0  0  0  0  0  0
    4.3101    0.9220    2.2107 H   0  0  0  0  0  0  0  0  0  0  0  0
    4.1886   -0.0360   -1.9734 H   0  0  0  0  0  0  0  0  0  0  0  0
    6.0640    1.0623    0.7865 H   0  0  0  0  0  0  0  0  0  0  0  0
  1  2  1  0
  2  3  2  0
  3  4  1  0
  4  5  2  0
  5  6  1  0
  6  7  2  0
  7  8  1  0
  8  9  2  0
  9 10  1  0
  8 11  1  0
 11 12  2  0
 12 13  1  0
 12 14  1  0
 14 15  2  0
 15 16  1  0
 16 17  2  0
 16 18  1  0
  7  2  1  0
 13 10  2  0
 17 13  1  0
  1 19  1  0
  1 20  1  0
  1 21  1  0
  3 22  1  0
  4 23  1  0
  6 24  1  0
  9 25  1  0
 10 26  1  0
 11 27  1  0
 14 28  1  0
 15 29  1  0
 17 30  1  0
 18 31  1  0
M  END
>  <mol_id>  (36) 
Z5020304860

>  <drugclip_rank>  (36) 
36

>  <conformer>  (36) 
0

>  <align_rmsd>  (36) 
0.359

$$$$
Z2180011391
     RDKit          3D

 36 38  0  0  0  0  0  0  0  0999 V2000
    5.6632    0.6650   -0.0556 O   0  0  0  0  0  0  0  0  0  0  0  0
    4.3205    0.6669    0.1946 C   0  0  0  0  0  0  0  0  0  0  0  0
    3.5116    0.1309   -0.8029 C   0  0  0  0  0  0  0  0  0  0  0  0
    2.1269    0.0897   -0.6342 C   0  0  0  0  0  0  0  0  0  0  0  0
    1.5308    0.5850    0.5345 C   0  0  0  0  0  0  0  0  0  0  0  0
    2.3696    1.1226    1.5286 C   0  0  0  0  0  0  0  0  0  0  0  0
    3.7672    1.1712    1.3753 C   0  0  0  0  0  0  0  0  0  0  0  0
    4.6078    1.7528    2.4739 C   0  0  0  0  0  0  0  0  0  0  0  0
    0.0706    0.5435    0.7171 C   0  0  0  0  0  0  0  0  0  0  0  0
   -0.6543    1.7122    1.0055 C   0  0  0  0  0  0  0  0  0  0  0  0
   -2.0417    1.6813    1.1732 C   0  0  0  0  0  0  0  0  0  0  0  0
   -0.6378   -0.6644    0.6014 C   0  0  0  0  0  0  0  0  0  0  0  0
   -2.0255   -0.7068    0.7830 C   0  0  0  0  0  0  0  0  0  0  0  0
   -2.7298    0.4723    1.0700 C   0  0  0  0  0  0  0  0  0  0  0  0
   -2.8084   -1.9829    0.6275 C   0  0  0  0  0  0  0  0  0  0  0  0
   -3.8703   -2.1141    1.7208 C   0  0  0  0  0  0  0  0  0  0  0  0
   -4.6470   -0.8241    2.0265 C   0  0  0  0  0  0  0  0  0  0  0  0
   -4.2269    0.3933    1.2005 C   0  0  0  0  0  0  0  0  0  0  0  0
    6.1308    1.0538    0.6990 H   0  0  0  0  0  0  0  0  0  0  0  0
    3.9593   -0.2536   -1.7152 H   0  0  0  0  0  0  0  0  0  0  0  0
    1.5118   -0.3235   -1.4307 H   0  0  0  0  0  0  0  0  0  0  0  0
    1.9204    1.4996    2.4467 H   0  0  0  0  0  0  0  0  0  0  0  0
    5.1739    2.6131    2.1026 H   0  0  0  0  0  0  0  0  0  0  0  0
    5.3012    0.9986    2.8596 H   0  0  0  0  0  0  0  0  0  0  0  0
    3.9952    2.0986    3.3132 H   0  0  0  0  0  0  0  0  0  0  0  0
   -0.1383    2.6671    1.0831 H   0  0  0  0  0  0  0  0  0  0  0  0
   -2.5754    2.6055    1.3791 H   0  0  0  0  0  0  0  0  0  0  0  0
   -0.0996   -1.5836    0.3775 H   0  0  0  0  0  0  0  0  0  0  0  0
   -2.1455   -2.8551    0.6649 H   0  0  0  0  0  0  0  0  0  0  0  0
   -3.2843   -1.9809   -0.3609 H   0  0  0  0  0  0  0  0  0  0  0  0
   -4.5699   -2.9155    1.4545 H   0  0  0  0  0  0  0  0  0  0  0  0
   -3.3812   -2.4423    2.6479 H   0  0  0  0  0  0  0  0  0  0  0  0
   -5.7221   -0.9973    1.8967 H   0  0  0  0  0  0  0  0  0  0  0  0
   -4.5101   -0.5911    3.0911 H   0  0  0  0  0  0  0  0  0  0  0  0
   -4.6265    1.3001    1.6692 H   0  0  0  0  0  0  0  0  0  0  0  0
   -4.6604    0.3322    0.1946 H   0  0  0  0  0  0  0  0  0  0  0  0
  1  2  1  0
  2  3  2  0
  3  4  1  0
  4  5  2  0
  5  6  1  0
  6  7  2  0
  7  8  1  0
  5  9  1  0
  9 10  2  0
 10 11  1  0
  9 12  1  0
 12 13  2  0
 13 14  1  0
 13 15  1  0
 15 16  1  0
 16 17  1  0
 17 18  1  0
  7  2  1  0
 14 11  2  0
 18 14  1  0
  1 19  1  0
  3 20  1  0
  4 21  1  0
  6 22  1  0
  8 23  1  0
  8 24  1  0
  8 25  1  0
 10 26  1  0
 11 27  1  0
 12 28  1  0
 15 29  1  0
 15 30  1  0
 16 31  1  0
 16 32  1  0
 17 33  1  0
 17 34  1  0
 18 35  1  0
 18 36  1  0
M  END
>  <mol_id>  (37) 
Z2180011391

>  <drugclip_rank>  (37) 
37

>  <conformer>  (37) 
5

>  <align_rmsd>  (37) 
0.032

$$$$
STK801619
     RDKit          3D

 30 32  0  0  0  0  0  0  0  0999 V2000
    1.8588    0.9434    1.4618 C   0  0  0  0  0  0  0  0  0  0  0  0
    3.2480    0.9383    1.3017 C   0  0  0  0  0  0  0  0  0  0  0  0
    3.8020    0.3733    0.1588 C   0  0  0  0  0  0  0  0  0  0  0  0
    5.1500    0.3464   -0.0397 O   0  0  0  0  0  0  0  0  0  0  0  0
    2.9922   -0.1875   -0.8201 C   0  0  0  0  0  0  0  0  0  0  0  0
    1.6046   -0.1834   -0.6585 C   0  0  0  0  0  0  0  0  0  0  0  0
    1.0201    0.3868    0.4814 C   0  0  0  0  0  0  0  0  0  0  0  0
   -0.4447    0.3981    0.6428 C   0  0  0  0  0  0  0  0  0  0  0  0
   -1.2741   -0.8280    0.4909 C   0  0  0  0  0  0  0  0  0  0  0  0
   -0.8022   -1.9331    0.2392 O   0  0  0  0  0  0  0  0  0  0  0  0
   -1.0965    1.5414    0.9068 C   0  0  0  0  0  0  0  0  0  0  0  0
   -2.4516    1.6990    1.0685 O   0  0  0  0  0  0  0  0  0  0  0  0
   -3.2439    0.5857    0.9428 C   0  0  0  0  0  0  0  0  0  0  0  0
   -2.7290   -0.6790    0.6608 C   0  0  0  0  0  0  0  0  0  0  0  0
   -4.6185    0.7681    1.1103 C   0  0  0  0  0  0  0  0  0  0  0  0
   -5.4687   -0.3281    0.9928 C   0  0  0  0  0  0  0  0  0  0  0  0
   -6.8172   -0.1988    1.1479 O   0  0  0  0  0  0  0  0  0  0  0  0
   -4.9681   -1.5960    0.7122 C   0  0  0  0  0  0  0  0  0  0  0  0
   -3.5966   -1.7711    0.5463 C   0  0  0  0  0  0  0  0  0  0  0  0
   -3.1653   -3.0413    0.2727 O   0  0  0  0  0  0  0  0  0  0  0  0
    1.4391    1.3766    2.3672 H   0  0  0  0  0  0  0  0  0  0  0  0
    3.8738    1.3726    2.0749 H   0  0  0  0  0  0  0  0  0  0  0  0
    5.5876    0.7358    0.7347 H   0  0  0  0  0  0  0  0  0  0  0  0
    3.4371   -0.6333   -1.7054 H   0  0  0  0  0  0  0  0  0  0  0  0
    0.9863   -0.6354   -1.4316 H   0  0  0  0  0  0  0  0  0  0  0  0
   -0.6088    2.5032    1.0164 H   0  0  0  0  0  0  0  0  0  0  0  0
   -5.0046    1.7586    1.3289 H   0  0  0  0  0  0  0  0  0  0  0  0
   -7.0318    0.7299    1.3349 H   0  0  0  0  0  0  0  0  0  0  0  0
   -5.6417   -2.4439    0.6232 H   0  0  0  0  0  0  0  0  0  0  0  0
   -2.1851   -3.0203    0.1850 H   0  0  0  0  0  0  0  0  0  0  0  0
  1  2  2  0
  2  3  1  0
  3  4  1  0
  3  5  2  0
  5  6  1  0
  6  7  2  0
  7  8  1  0
  8  9  1  0
  9 10  2  0
  8 11  2  0
 11 12  1  0
 12 13  1  0
 13 14  2  0
 13 15  1  0
 15 16  2  0
 16 17  1  0
 16 18  1  0
 18 19  2  0
 19 20  1  0
  7  1  1  0
 14  9  1  0
 19 14  1  0
  1 21  1  0
  2 22  1  0
  4 23  1  0
  5 24  1  0
  6 25  1  0
 11 26  1  0
 15 27  1  0
 17 28  1  0
 18 29  1  0
 20 30  1  0
M  END
>  <mol_id>  (38) 
STK801619

>  <drugclip_rank>  (38) 
38

>  <conformer>  (38) 
0

>  <align_rmsd>  (38) 
0.983

$$$$
OSSK_098099
     RDKit          3D

 30 32  0  0  0  0  0  0  0  0999 V2000
    1.8588    0.9434    1.4618 C   0  0  0  0  0  0  0  0  0  0  0  0
    3.2480    0.9383    1.3017 C   0  0  0  0  0  0  0  0  0  0  0  0
    3.8020    0.3733    0.1588 C   0  0  0  0  0  0  0  0  0  0  0  0
    5.1500    0.3464   -0.0397 O   0  0  0  0  0  0  0  0  0  0  0  0
    2.9922   -0.1875   -0.8201 C   0  0  0  0  0  0  0  0  0  0  0  0
    1.6046   -0.1834   -0.6585 C   0  0  0  0  0  0  0  0  0  0  0  0
    1.0201    0.3868    0.4814 C   0  0  0  0  0  0  0  0  0  0  0  0
   -0.4447    0.3981    0.6428 C   0  0  0  0  0  0  0  0  0  0  0  0
   -1.2741   -0.8280    0.4909 C   0  0  0  0  0  0  0  0  0  0  0  0
   -0.8022   -1.9331    0.2392 O   0  0  0  0  0  0  0  0  0  0  0  0
   -1.0965    1.5414    0.9068 C   0  0  0  0  0  0  0  0  0  0  0  0
   -2.4516    1.6990    1.0685 O   0  0  0  0  0  0  0  0  0  0  0  0
   -3.2439    0.5857    0.9428 C   0  0  0  0  0  0  0  0  0  0  0  0
   -2.7290   -0.6790    0.6608 C   0  0  0  0  0  0  0  0  0  0  0  0
   -4.6185    0.7681    1.1103 C   0  0  0  0  0  0  0  0  0  0  0  0
   -5.4687   -0.3281    0.9928 C   0  0  0  0  0  0  0  0  0  0  0  0
   -6.8172   -0.1988    1.1479 O   0  0  0  0  0  0  0  0  0  0  0  0
   -4.9681   -1.5960    0.7122 C   0  0  0  0  0  0  0  0  0  0  0  0
   -3.5966   -1.7711    0.5463 C   0  0  0  0  0  0  0  0  0  0  0  0
   -3.1653   -3.0413    0.2727 O   0  0  0  0  0  0  0  0  0  0  0  0
    1.4391    1.3766    2.3672 H   0  0  0  0  0  0  0  0  0  0  0  0
    3.8738    1.3726    2.0749 H   0  0  0  0  0  0  0  0  0  0  0  0
    5.5876    0.7358    0.7347 H   0  0  0  0  0  0  0  0  0  0  0  0
    3.4371   -0.6333   -1.7054 H   0  0  0  0  0  0  0  0  0  0  0  0
    0.9863   -0.6354   -1.4316 H   0  0  0  0  0  0  0  0  0  0  0  0
   -0.6088    2.5032    1.0164 H   0  0  0  0  0  0  0  0  0  0  0  0
   -5.0046    1.7586    1.3289 H   0  0  0  0  0  0  0  0  0  0  0  0
   -7.0318    0.7299    1.3349 H   0  0  0  0  0  0  0  0  0  0  0  0
   -5.6417   -2.4439    0.6232 H   0  0  0  0  0  0  0  0  0  0  0  0
   -2.1851   -3.0203    0.1850 H   0  0  0  0  0  0  0  0  0  0  0  0
  1  2  2  0
  2  3  1  0
  3  4  1  0
  3  5  2  0
  5  6  1  0
  6  7  2  0
  7  8  1  0
  8  9  1  0
  9 10  2  0
  8 11  2  0
 11 12  1  0
 12 13  1  0
 13 14  2  0
 13 15  1  0
 15 16  2  0
 16 17  1  0
 16 18  1  0
 18 19  2  0
 19 20  1  0
  7  1  1  0
 14  9  1  0
 19 14  1  0
  1 21  1  0
  2 22  1  0
  4 23  1  0
  5 24  1  0
  6 25  1  0
 11 26  1  0
 15 27  1  0
 17 28  1  0
 18 29  1  0
 20 30  1  0
M  END
>  <mol_id>  (39) 
OSSK_098099

>  <drugclip_rank>  (39) 
39

>  <conformer>  (39) 
0

>  <align_rmsd>  (39) 
0.983

$$$$
Z5020307501
     RDKit          3D

 27 29  0  0  0  0  0  0  0  0999 V2000
    5.3679   -0.4937   -0.1754 C   0  0  0  0  0  0  0  0  0  0  0  0
    6.0417    0.7764   -0.0376 O   0  0  0  0  0  0  0  0  0  0  0  0
    5.1671    1.7983    0.2083 C   0  0  0  0  0  0  0  0  0  0  0  0
    5.4438    2.9698    0.3674 O   0  0  0  0  0  0  0  0  0  0  0  0
    3.8361    1.2078    0.2379 C   0  0  0  0  0  0  0  0  0  0  0  0
    3.9460   -0.1465    0.0090 C   0  0  0  0  0  0  0  0  0  0  0  0
    2.6206    1.8306    0.4513 C   0  0  0  0  0  0  0  0  0  0  0  0
    1.4740    1.0321    0.4306 C   0  0  0  0  0  0  0  0  0  0  0  0
    1.5560   -0.3623    0.2010 C   0  0  0  0  0  0  0  0  0  0  0  0
    2.8175   -0.9501   -0.0164 C   0  0  0  0  0  0  0  0  0  0  0  0
    0.3350   -1.1823    0.1777 C   0  0  0  0  0  0  0  0  0  0  0  0
   -0.5253   -1.0936   -0.9326 C   0  0  0  0  0  0  0  0  0  0  0  0
   -1.6941   -1.8548   -1.0003 C   0  0  0  0  0  0  0  0  0  0  0  0
   -2.0186   -2.7123    0.0419 C   0  0  0  0  0  0  0  0  0  0  0  0
   -3.1694   -3.4343   -0.0680 O   0  0  0  0  0  0  0  0  0  0  0  0
   -1.1939   -2.8234    1.1544 C   0  0  0  0  0  0  0  0  0  0  0  0
   -0.0218   -2.0604    1.2212 C   0  0  0  0  0  0  0  0  0  0  0  0
    0.9549   -2.2316    2.6416 Cl  0  0  0  0  0  0  0  0  0  0  0  0
    5.7342   -1.1720    0.6000 H   0  0  0  0  0  0  0  0  0  0  0  0
    5.5721   -0.8934   -1.1725 H   0  0  0  0  0  0  0  0  0  0  0  0
    2.5638    2.8995    0.6309 H   0  0  0  0  0  0  0  0  0  0  0  0
    0.5041    1.4973    0.6022 H   0  0  0  0  0  0  0  0  0  0  0  0
    2.9053   -2.0186   -0.1974 H   0  0  0  0  0  0  0  0  0  0  0  0
   -0.2834   -0.4280   -1.7597 H   0  0  0  0  0  0  0  0  0  0  0  0
   -2.3482   -1.7771   -1.8650 H   0  0  0  0  0  0  0  0  0  0  0  0
   -3.2807   -3.9813    0.7274 H   0  0  0  0  0  0  0  0  0  0  0  0
   -1.4495   -3.4913    1.9710 H   0  0  0  0  0  0  0  0  0  0  0  0
  1  2  1  0
  2  3  1  0
  3  4  2  0
  3  5  1  0
  5  6  2  0
  5  7  1  0
  7  8  2  0
  8  9  1  0
  9 10  2  0
  9 11  1  0
 11 12  2  0
 12 13  1  0
 13 14  2  0
 14 15  1  0
 14 16  1  0
 16 17  2  0
 17 18  1  0
  6  1  1  0
 10  6  1  0
 17 11  1  0
  1 19  1  0
  1 20  1  0
  7 21  1  0
  8 22  1  0
 10 23  1  0
 12 24  1  0
 13 25  1  0
 15 26  1  0
 16 27  1  0
M  END
>  <mol_id>  (40) 
Z5020307501

>  <drugclip_rank>  (40) 
40

>  <conformer>  (40) 
3

>  <align_rmsd>  (40) 
0.373

$$$$
Z1824566795
     RDKit          3D

 30 32  0  0  0  0  0  0  0  0999 V2000
   -4.3191    0.7484    1.3824 C   0  0  0  0  0  0  0  0  0  0  0  0
   -5.1882   -0.3256    1.2479 C   0  0  0  0  0  0  0  0  0  0  0  0
   -6.5134   -0.0975    1.4708 O   0  0  0  0  0  0  0  0  0  0  0  0
   -4.7150   -1.5854    0.8972 C   0  0  0  0  0  0  0  0  0  0  0  0
   -3.3444   -1.7669    0.6793 C   0  0  0  0  0  0  0  0  0  0  0  0
   -2.8998   -3.0114    0.3329 O   0  0  0  0  0  0  0  0  0  0  0  0
   -2.4488   -0.6933    0.8118 C   0  0  0  0  0  0  0  0  0  0  0  0
   -2.9525    0.5623    1.1637 C   0  0  0  0  0  0  0  0  0  0  0  0
   -0.9835   -0.8241    0.5977 C   0  0  0  0  0  0  0  0  0  0  0  0
   -0.4500   -1.8854    0.2983 O   0  0  0  0  0  0  0  0  0  0  0  0
   -0.1693    0.4162    0.7719 C   0  0  0  0  0  0  0  0  0  0  0  0
   -0.8200    1.5410    1.1011 C   0  0  0  0  0  0  0  0  0  0  0  0
   -2.1660    1.6759    1.3149 O   0  0  0  0  0  0  0  0  0  0  0  0
    1.2910    0.4406    0.5615 C   0  0  0  0  0  0  0  0  0  0  0  0
    1.8466   -0.0615   -0.6240 C   0  0  0  0  0  0  0  0  0  0  0  0
    3.2273   -0.0265   -0.8342 C   0  0  0  0  0  0  0  0  0  0  0  0
    4.0597    0.5055    0.1417 C   0  0  0  0  0  0  0  0  0  0  0  0
    5.4004    0.5192   -0.1040 O   0  0  0  0  0  0  0  0  0  0  0  0
    3.5353    1.0022    1.3297 C   0  0  0  0  0  0  0  0  0  0  0  0
    2.1529    0.9680    1.5381 C   0  0  0  0  0  0  0  0  0  0  0  0
   -4.7030    1.7275    1.6557 H   0  0  0  0  0  0  0  0  0  0  0  0
   -7.0099   -0.9226    1.3424 H   0  0  0  0  0  0  0  0  0  0  0  0
   -5.4024   -2.4180    0.7932 H   0  0  0  0  0  0  0  0  0  0  0  0
   -3.6318   -3.6457    0.2959 H   0  0  0  0  0  0  0  0  0  0  0  0
   -0.3374    2.5025    1.2306 H   0  0  0  0  0  0  0  0  0  0  0  0
    1.2088   -0.4941   -1.3926 H   0  0  0  0  0  0  0  0  0  0  0  0
    3.6485   -0.4215   -1.7543 H   0  0  0  0  0  0  0  0  0  0  0  0
    5.8554    0.8742    0.6768 H   0  0  0  0  0  0  0  0  0  0  0  0
    4.1787    1.4127    2.1011 H   0  0  0  0  0  0  0  0  0  0  0  0
    1.7558    1.3467    2.4774 H   0  0  0  0  0  0  0  0  0  0  0  0
  1  2  2  0
  2  3  1  0
  2  4  1  0
  4  5  2  0
  5  6  1  0
  5  7  1  0
  7  8  2  0
  7  9  1  0
  9 10  2  0
  9 11  1  0
 11 12  2  0
 12 13  1  0
 11 14  1  0
 14 15  2  0
 15 16  1  0
 16 17  2  0
 17 18  1  0
 17 19  1  0
 19 20  2  0
  8  1  1  0
 13  8  1  0
 20 14  1  0
  1 21  1  0
  3 22  1  0
  4 23  1  0
  6 24  1  0
 12 25  1  0
 15 26  1  0
 16 27  1  0
 18 28  1  0
 19 29  1  0
 20 30  1  0
M  END
>  <mol_id>  (41) 
Z1824566795

>  <drugclip_rank>  (41) 
41

>  <conformer>  (41) 
1

>  <align_rmsd>  (41) 
0.706

$$$$
Z9101486005
     RDKit          3D

 39 40  0  0  0  0  0  0  0  0999 V2000
    0.0330    2.2469    1.1537 C   0  0  0  0  0  0  0  0  0  0  0  0
    1.4088    1.6991    0.8780 C   0  0  0  0  0  0  0  0  0  0  0  0
    2.5194    2.5524    1.0055 C   0  0  0  0  0  0  0  0  0  0  0  0
    3.8116    2.0883    0.7576 C   0  0  0  0  0  0  0  0  0  0  0  0
    3.9977    0.7670    0.3761 C   0  0  0  0  0  0  0  0  0  0  0  0
    5.2419    0.2688    0.1241 O   0  0  0  0  0  0  0  0  0  0  0  0
    2.9141   -0.0926    0.2358 C   0  0  0  0  0  0  0  0  0  0  0  0
    1.6040    0.3567    0.4789 C   0  0  0  0  0  0  0  0  0  0  0  0
    0.4861   -0.5832    0.3097 C   0  0  0  0  0  0  0  0  0  0  0  0
    0.2085   -1.5411    1.2874 C   0  0  0  0  0  0  0  0  0  0  0  0
   -0.8516   -2.4276    1.1204 C   0  0  0  0  0  0  0  0  0  0  0  0
   -1.6438   -2.3642   -0.0305 C   0  0  0  0  0  0  0  0  0  0  0  0
   -2.6757   -3.2537   -0.1518 O   0  0  0  0  0  0  0  0  0  0  0  0
   -1.4054   -1.4215   -1.0486 C   0  0  0  0  0  0  0  0  0  0  0  0
   -0.3204   -0.5412   -0.8442 C   0  0  0  0  0  0  0  0  0  0  0  0
   -2.2721   -1.3423   -2.3248 C   0  0  0  0  0  0  0  0  0  0  0  0
   -2.1943   -2.6692   -3.1120 C   0  0  0  0  0  0  0  0  0  0  0  0
   -3.7414   -1.0353   -1.9594 C   0  0  0  0  0  0  0  0  0  0  0  0
   -1.8300   -0.2286   -3.3090 C   0  0  0  0  0  0  0  0  0  0  0  0
   -0.5064    1.6046    1.8571 H   0  0  0  0  0  0  0  0  0  0  0  0
   -0.5354    2.3312    0.2223 H   0  0  0  0  0  0  0  0  0  0  0  0
    0.0839    3.2435    1.6054 H   0  0  0  0  0  0  0  0  0  0  0  0
    2.3808    3.5898    1.3032 H   0  0  0  0  0  0  0  0  0  0  0  0
    4.6503    2.7681    0.8669 H   0  0  0  0  0  0  0  0  0  0  0  0
    5.8915    0.9792    0.2513 H   0  0  0  0  0  0  0  0  0  0  0  0
    3.0907   -1.1208   -0.0727 H   0  0  0  0  0  0  0  0  0  0  0  0
    0.8182   -1.5963    2.1865 H   0  0  0  0  0  0  0  0  0  0  0  0
   -1.0462   -3.1606    1.8973 H   0  0  0  0  0  0  0  0  0  0  0  0
   -2.6867   -3.8371    0.6236 H   0  0  0  0  0  0  0  0  0  0  0  0
   -0.0679    0.2108   -1.5882 H   0  0  0  0  0  0  0  0  0  0  0  0
   -1.1548   -2.9255   -3.3486 H   0  0  0  0  0  0  0  0  0  0  0  0
   -2.7431   -2.5988   -4.0587 H   0  0  0  0  0  0  0  0  0  0  0  0
   -2.6239   -3.5136   -2.5655 H   0  0  0  0  0  0  0  0  0  0  0  0
   -4.2127   -1.8363   -1.3830 H   0  0  0  0  0  0  0  0  0  0  0  0
   -4.3516   -0.8991   -2.8603 H   0  0  0  0  0  0  0  0  0  0  0  0
   -3.8150   -0.1162   -1.3660 H   0  0  0  0  0  0  0  0  0  0  0  0
   -2.4726   -0.2077   -4.1978 H   0  0  0  0  0  0  0  0  0  0  0  0
   -1.8899    0.7648   -2.8491 H   0  0  0  0  0  0  0  0  0  0  0  0
   -0.8037   -0.3845   -3.6618 H   0  0  0  0  0  0  0  0  0  0  0  0
  1  2  1  0
  2  3  2  0
  3  4  1  0
  4  5  2  0
  5  6  1  0
  5  7  1  0
  7  8  2  0
  8  9  1  0
  9 10  2  0
 10 11  1  0
 11 12  2  0
 12 13  1  0
 12 14  1  0
 14 15  2  0
 14 16  1  0
 16 17  1  0
 16 18  1  0
 16 19  1  0
  8  2  1  0
 15  9  1  0
  1 20  1  0
  1 21  1  0
  1 22  1  0
  3 23  1  0
  4 24  1  0
  6 25  1  0
  7 26  1  0
 10 27  1  0
 11 28  1  0
 13 29  1  0
 15 30  1  0
 17 31  1  0
 17 32  1  0
 17 33  1  0
 18 34  1  0
 18 35  1  0
 18 36  1  0
 19 37  1  0
 19 38  1  0
 19 39  1  0
M  END
>  <mol_id>  (42) 
Z9101486005

>  <drugclip_rank>  (42) 
42

>  <conformer>  (42) 
3

>  <align_rmsd>  (42) 
0.694

$$$$
Z5020305635
     RDKit          3D

 30 32  0  0  0  0  0  0  0  0999 V2000
   -2.1260   -2.7047   -1.7769 C   0  0  0  0  0  0  0  0  0  0  0  0
   -2.5967   -2.8491   -0.4398 O   0  0  0  0  0  0  0  0  0  0  0  0
   -3.0329   -1.7048    0.1024 C   0  0  0  0  0  0  0  0  0  0  0  0
   -4.7234   -1.4867    0.3095 S   0  0  0  0  0  0  0  0  0  0  0  0
   -4.5171    0.0684    0.9780 C   0  0  0  0  0  0  0  0  0  0  0  0
   -3.1888    0.4107    1.0785 C   0  0  0  0  0  0  0  0  0  0  0  0
   -2.3167   -0.6208    0.5945 C   0  0  0  0  0  0  0  0  0  0  0  0
   -0.8568   -0.5717    0.6011 C   0  0  0  0  0  0  0  0  0  0  0  0
   -0.1073   -1.6221    1.1396 C   0  0  0  0  0  0  0  0  0  0  0  0
    1.2887   -1.5627    1.1493 C   0  0  0  0  0  0  0  0  0  0  0  0
   -0.1916    0.5464    0.0803 C   0  0  0  0  0  0  0  0  0  0  0  0
    1.2119    0.6201    0.0822 C   0  0  0  0  0  0  0  0  0  0  0  0
    1.9629   -0.4498    0.6242 C   0  0  0  0  0  0  0  0  0  0  0  0
    1.8850    1.7347   -0.4443 C   0  0  0  0  0  0  0  0  0  0  0  0
    3.2790    1.7932   -0.4358 C   0  0  0  0  0  0  0  0  0  0  0  0
    4.0072    0.7398    0.0983 C   0  0  0  0  0  0  0  0  0  0  0  0
    3.3660   -0.3774    0.6267 C   0  0  0  0  0  0  0  0  0  0  0  0
    5.3673    0.8399    0.0860 O   0  0  0  0  0  0  0  0  0  0  0  0
   -2.8936   -2.2577   -2.4182 H   0  0  0  0  0  0  0  0  0  0  0  0
   -1.8972   -3.7022   -2.1636 H   0  0  0  0  0  0  0  0  0  0  0  0
   -1.2097   -2.1081   -1.8150 H   0  0  0  0  0  0  0  0  0  0  0  0
   -5.3766    0.6514    1.2789 H   0  0  0  0  0  0  0  0  0  0  0  0
   -2.8525    1.3495    1.5022 H   0  0  0  0  0  0  0  0  0  0  0  0
   -0.6036   -2.4952    1.5588 H   0  0  0  0  0  0  0  0  0  0  0  0
    1.8440   -2.3961    1.5739 H   0  0  0  0  0  0  0  0  0  0  0  0
   -0.7701    1.3656   -0.3423 H   0  0  0  0  0  0  0  0  0  0  0  0
    1.3282    2.5683   -0.8661 H   0  0  0  0  0  0  0  0  0  0  0  0
    3.7933    2.6584   -0.8445 H   0  0  0  0  0  0  0  0  0  0  0  0
    3.9467   -1.1957    1.0419 H   0  0  0  0  0  0  0  0  0  0  0  0
    5.7424    0.0411    0.4914 H   0  0  0  0  0  0  0  0  0  0  0  0
  1  2  1  0
  2  3  1  0
  3  4  1  0
  4  5  1  0
  5  6  2  0
  6  7  1  0
  7  8  1  0
  8  9  2  0
  9 10  1  0
  8 11  1  0
 11 12  2  0
 12 13  1  0
 12 14  1  0
 14 15  2  0
 15 16  1  0
 16 17  2  0
 16 18  1  0
  7  3  2  0
 13 10  2  0
 17 13  1  0
  1 19  1  0
  1 20  1  0
  1 21  1  0
  5 22  1  0
  6 23  1  0
  9 24  1  0
 10 25  1  0
 11 26  1  0
 14 27  1  0
 15 28  1  0
 17 29  1  0
 18 30  1  0
M  END
>  <mol_id>  (43) 
Z5020305635

>  <drugclip_rank>  (43) 
43

>  <conformer>  (43) 
3

>  <align_rmsd>  (43) 
0.935

$$$$
Z4224787393
     RDKit          3D

 38 40  0  0  0  0  0  0  0  0999 V2000
   -3.8654   -4.2745   -0.4246 O   0  0  0  0  0  0  0  0  0  0  0  0
   -3.0733   -4.4570   -1.5880 C   0  0  0  0  0  0  0  0  0  0  0  0
   -2.6255   -3.1239   -2.1185 C   0  0  0  0  0  0  0  0  0  0  0  0
   -3.2740   -2.5856   -3.2337 C   0  0  0  0  0  0  0  0  0  0  0  0
   -2.8552   -1.3627   -3.7214 C   0  0  0  0  0  0  0  0  0  0  0  0
   -1.8538   -0.6406   -3.1791 N   0  0  0  0  0  0  0  0  0  0  0  0
   -1.2217   -1.1306   -2.0844 C   0  0  0  0  0  0  0  0  0  0  0  0
   -1.5906   -2.3770   -1.5281 C   0  0  0  0  0  0  0  0  0  0  0  0
   -0.7688   -3.0078   -0.1328 Cl  0  0  0  0  0  0  0  0  0  0  0  0
   -0.1995   -0.3512   -1.4996 N   0  0  0  0  0  0  0  0  0  0  0  0
   -0.6901    0.4389   -0.3644 C   0  0  0  0  0  0  0  0  0  0  0  0
    0.3336    0.4371    0.7826 C   0  0  0  0  0  0  0  0  0  0  0  0
    0.5978    0.3969   -2.4904 C   0  0  0  0  0  0  0  0  0  0  0  0
    1.4662    1.5108   -1.8864 C   0  0  0  0  0  0  0  0  0  0  0  0
    2.3392    1.0962   -0.7292 C   0  0  0  0  0  0  0  0  0  0  0  0
    1.8109    0.6272    0.4892 C   0  0  0  0  0  0  0  0  0  0  0  0
    3.7342    1.2255   -0.8694 C   0  0  0  0  0  0  0  0  0  0  0  0
    4.5888    0.8973    0.1755 C   0  0  0  0  0  0  0  0  0  0  0  0
    5.9291    1.0439   -0.0273 O   0  0  0  0  0  0  0  0  0  0  0  0
    4.0847    0.4417    1.3826 C   0  0  0  0  0  0  0  0  0  0  0  0
    2.7040    0.3120    1.5358 C   0  0  0  0  0  0  0  0  0  0  0  0
   -3.2964   -3.8408    0.2359 H   0  0  0  0  0  0  0  0  0  0  0  0
   -2.2253   -5.1110   -1.3594 H   0  0  0  0  0  0  0  0  0  0  0  0
   -3.6829   -4.9877   -2.3274 H   0  0  0  0  0  0  0  0  0  0  0  0
   -4.0936   -3.1077   -3.7180 H   0  0  0  0  0  0  0  0  0  0  0  0
   -3.3306   -0.9137   -4.5892 H   0  0  0  0  0  0  0  0  0  0  0  0
   -0.9259    1.4643   -0.6751 H   0  0  0  0  0  0  0  0  0  0  0  0
   -1.6330    0.0432    0.0389 H   0  0  0  0  0  0  0  0  0  0  0  0
    0.0323    1.2064    1.5054 H   0  0  0  0  0  0  0  0  0  0  0  0
    0.2333   -0.5274    1.2984 H   0  0  0  0  0  0  0  0  0  0  0  0
   -0.0336    0.8787   -3.2476 H   0  0  0  0  0  0  0  0  0  0  0  0
    1.2471   -0.3177   -3.0125 H   0  0  0  0  0  0  0  0  0  0  0  0
    0.8481    2.3572   -1.5617 H   0  0  0  0  0  0  0  0  0  0  0  0
    2.0870    1.9175   -2.6958 H   0  0  0  0  0  0  0  0  0  0  0  0
    4.1657    1.5879   -1.7996 H   0  0  0  0  0  0  0  0  0  0  0  0
    6.3934    0.7566    0.7756 H   0  0  0  0  0  0  0  0  0  0  0  0
    4.7384    0.1836    2.2089 H   0  0  0  0  0  0  0  0  0  0  0  0
    2.3166   -0.0494    2.4870 H   0  0  0  0  0  0  0  0  0  0  0  0
  1  2  1  0
  2  3  1  0
  3  4  2  0
  4  5  1  0
  5  6  2  0
  6  7  1  0
  7  8  2  0
  8  9  1  0
  7 10  1  0
 10 11  1  0
 11 12  1  0
 10 13  1  0
 13 14  1  0
 14 15  1  0
 15 16  2  0
 15 17  1  0
 17 18  2  0
 18 19  1  0
 18 20  1  0
 20 21  2  0
  8  3  1  0
 16 12  1  0
 21 16  1  0
  1 22  1  0
  2 23  1  0
  2 24  1  0
  4 25  1  0
  5 26  1  0
 11 27  1  0
 11 28  1  0
 12 29  1  0
 12 30  1  0
 13 31  1  0
 13 32  1  0
 14 33  1  0
 14 34  1  0
 17 35  1  0
 19 36  1  0
 20 37  1  0
 21 38  1  0
M  END
>  <mol_id>  (44) 
Z4224787393

>  <drugclip_rank>  (44) 
44

>  <conformer>  (44) 
22

>  <align_rmsd>  (44) 
0.841

$$$$
Z5020306225
     RDKit          3D

 31 33  0  0  0  0  0  0  0  0999 V2000
   -1.1970   -3.8364   -0.1716 C   0  0  0  0  0  0  0  0  0  0  0  0
   -2.1925   -2.7283   -0.3725 C   0  0  0  0  0  0  0  0  0  0  0  0
   -3.5005   -3.0872   -0.2668 N   0  0  0  0  0  0  0  0  0  0  0  0
   -4.4304   -2.1255   -0.4436 C   0  0  0  0  0  0  0  0  0  0  0  0
   -4.1269   -0.8070   -0.7230 C   0  0  0  0  0  0  0  0  0  0  0  0
   -2.7861   -0.4518   -0.8270 C   0  0  0  0  0  0  0  0  0  0  0  0
   -1.7815   -1.4144   -0.6511 C   0  0  0  0  0  0  0  0  0  0  0  0
   -0.3727   -1.0236   -0.7616 C   0  0  0  0  0  0  0  0  0  0  0  0
    0.2652   -0.9957   -2.0078 C   0  0  0  0  0  0  0  0  0  0  0  0
    1.6072   -0.6216   -2.1139 C   0  0  0  0  0  0  0  0  0  0  0  0
    0.3616   -0.6614    0.3789 C   0  0  0  0  0  0  0  0  0  0  0  0
    1.7122   -0.2830    0.2901 C   0  0  0  0  0  0  0  0  0  0  0  0
    2.3430   -0.2636   -0.9749 C   0  0  0  0  0  0  0  0  0  0  0  0
    2.4493    0.0764    1.4315 C   0  0  0  0  0  0  0  0  0  0  0  0
    3.7911    0.4498    1.3284 C   0  0  0  0  0  0  0  0  0  0  0  0
    4.3997    0.4649    0.0799 C   0  0  0  0  0  0  0  0  0  0  0  0
    3.6915    0.1138   -1.0647 C   0  0  0  0  0  0  0  0  0  0  0  0
    5.7074    0.8228   -0.0680 O   0  0  0  0  0  0  0  0  0  0  0  0
   -0.5742   -3.9604   -1.0629 H   0  0  0  0  0  0  0  0  0  0  0  0
   -0.5613   -3.6292    0.6945 H   0  0  0  0  0  0  0  0  0  0  0  0
   -1.7088   -4.7874    0.0109 H   0  0  0  0  0  0  0  0  0  0  0  0
   -5.4608   -2.4563   -0.3514 H   0  0  0  0  0  0  0  0  0  0  0  0
   -4.9128   -0.0727   -0.8564 H   0  0  0  0  0  0  0  0  0  0  0  0
   -2.5215    0.5807   -1.0449 H   0  0  0  0  0  0  0  0  0  0  0  0
   -0.2818   -1.2696   -2.9081 H   0  0  0  0  0  0  0  0  0  0  0  0
    2.0749   -0.6122   -3.0961 H   0  0  0  0  0  0  0  0  0  0  0  0
   -0.1305   -0.6768    1.3505 H   0  0  0  0  0  0  0  0  0  0  0  0
    1.9798    0.0669    2.4128 H   0  0  0  0  0  0  0  0  0  0  0  0
    4.3368    0.7224    2.2260 H   0  0  0  0  0  0  0  0  0  0  0  0
    4.1987    0.1365   -2.0258 H   0  0  0  0  0  0  0  0  0  0  0  0
    6.0718    1.0370    0.8064 H   0  0  0  0  0  0  0  0  0  0  0  0
  1  2  1  0
  2  3  2  0
  3  4  1  0
  4  5  2  0
  5  6  1  0
  6  7  2  0
  7  8  1  0
  8  9  2  0
  9 10  1  0
  8 11  1  0
 11 12  2  0
 12 13  1  0
 12 14  1  0
 14 15  2  0
 15 16  1  0
 16 17  2  0
 16 18  1  0
  7  2  1  0
 13 10  2  0
 17 13  1  0
  1 19  1  0
  1 20  1  0
  1 21  1  0
  4 22  1  0
  5 23  1  0
  6 24  1  0
  9 25  1  0
 10 26  1  0
 11 27  1  0
 14 28  1  0
 15 29  1  0
 17 30  1  0
 18 31  1  0
M  END
>  <mol_id>  (45) 
Z5020306225

>  <drugclip_rank>  (45) 
45

>  <conformer>  (45) 
1

>  <align_rmsd>  (45) 
0.409

$$$$
Z56857923
     RDKit          3D

 40 43  0  0  0  0  0  0  0  0999 V2000
   -2.0958   -1.0595    3.6872 C   0  0  0  0  0  0  0  0  0  0  0  0
   -1.8184   -0.2354    2.4259 C   0  0  0  0  0  0  0  0  0  0  0  0
   -2.2684    1.2284    2.6356 C   0  0  0  0  0  0  0  0  0  0  0  0
   -2.0042    2.0589    1.3692 C   0  0  0  0  0  0  0  0  0  0  0  0
   -2.7762    1.4508    0.1915 C   0  0  0  0  0  0  0  0  0  0  0  0
   -2.3199    0.0042   -0.0372 C   0  0  0  0  0  0  0  0  0  0  0  0
   -2.5894   -0.8251    1.2260 C   0  0  0  0  0  0  0  0  0  0  0  0
   -0.8135   -0.0112   -0.3421 C   0  0  0  0  0  0  0  0  0  0  0  0
    0.0161    0.5938    0.8311 C   0  0  0  0  0  0  0  0  0  0  0  0
   -0.4984    2.0454    1.0569 C   0  0  0  0  0  0  0  0  0  0  0  0
   -0.3049   -0.2475    2.1022 C   0  0  0  0  0  0  0  0  0  0  0  0
    1.5335    0.6057    0.5764 C   0  0  0  0  0  0  0  0  0  0  0  0
    2.4109    1.1296    1.5486 C   0  0  0  0  0  0  0  0  0  0  0  0
    3.7955    1.1563    1.3514 C   0  0  0  0  0  0  0  0  0  0  0  0
    4.3256    0.6560    0.1714 C   0  0  0  0  0  0  0  0  0  0  0  0
    5.6674    0.6602   -0.0665 O   0  0  0  0  0  0  0  0  0  0  0  0
    3.4937    0.1332   -0.8062 C   0  0  0  0  0  0  0  0  0  0  0  0
    2.1092    0.1081   -0.6055 C   0  0  0  0  0  0  0  0  0  0  0  0
   -3.1640   -1.0625    3.9304 H   0  0  0  0  0  0  0  0  0  0  0  0
   -1.5581   -0.6534    4.5512 H   0  0  0  0  0  0  0  0  0  0  0  0
   -1.7800   -2.1004    3.5565 H   0  0  0  0  0  0  0  0  0  0  0  0
   -3.3374    1.2646    2.8822 H   0  0  0  0  0  0  0  0  0  0  0  0
   -1.7347    1.6721    3.4860 H   0  0  0  0  0  0  0  0  0  0  0  0
   -2.3354    3.0909    1.5313 H   0  0  0  0  0  0  0  0  0  0  0  0
   -3.8538    1.4773    0.3945 H   0  0  0  0  0  0  0  0  0  0  0  0
   -2.6087    2.0457   -0.7148 H   0  0  0  0  0  0  0  0  0  0  0  0
   -2.8701   -0.4251   -0.8822 H   0  0  0  0  0  0  0  0  0  0  0  0
   -2.2891   -1.8670    1.0555 H   0  0  0  0  0  0  0  0  0  0  0  0
   -3.6668   -0.8388    1.4354 H   0  0  0  0  0  0  0  0  0  0  0  0
   -0.6354    0.5536   -1.2670 H   0  0  0  0  0  0  0  0  0  0  0  0
   -0.5036   -1.0468   -0.5356 H   0  0  0  0  0  0  0  0  0  0  0  0
    0.0322    2.5292    1.8863 H   0  0  0  0  0  0  0  0  0  0  0  0
   -0.2991    2.6577    0.1671 H   0  0  0  0  0  0  0  0  0  0  0  0
    0.0398   -1.2812    1.9583 H   0  0  0  0  0  0  0  0  0  0  0  0
    0.2448    0.1365    2.9715 H   0  0  0  0  0  0  0  0  0  0  0  0
    2.0230    1.5283    2.4836 H   0  0  0  0  0  0  0  0  0  0  0  0
    4.4332    1.5687    2.1264 H   0  0  0  0  0  0  0  0  0  0  0  0
    6.1144    1.0530    0.7007 H   0  0  0  0  0  0  0  0  0  0  0  0
    3.9176   -0.2567   -1.7273 H   0  0  0  0  0  0  0  0  0  0  0  0
    1.5020   -0.3120   -1.4020 H   0  0  0  0  0  0  0  0  0  0  0  0
  1  2  1  0
  2  3  1  0
  3  4  1  0
  4  5  1  0
  5  6  1  0
  6  7  1  0
  6  8  1  0
  8  9  1  0
  9 10  1  0
  9 11  1  0
  9 12  1  0
 12 13  2  0
 13 14  1  0
 14 15  2  0
 15 16  1  0
 15 17  1  0
 17 18  2  0
  7  2  1  0
 11  2  1  0
 10  4  1  0
 18 12  1  0
  1 19  1  0
  1 20  1  0
  1 21  1  0
  3 22  1  0
  3 23  1  0
  4 24  1  0
  5 25  1  0
  5 26  1  0
  6 27  1  0
  7 28  1  0
  7 29  1  0
  8 30  1  0
  8 31  1  0
 10 32  1  0
 10 33  1  0
 11 34  1  0
 11 35  1  0
 13 36  1  0
 14 37  1  0
 16 38  1  0
 17 39  1  0
 18 40  1  0
M  END
>  <mol_id>  (46) 
Z56857923

>  <drugclip_rank>  (46) 
46

>  <conformer>  (46) 
0

>  <align_rmsd>  (46) 
0.041

$$$$
Z1513879239
     RDKit          3D

 33 35  0  0  0  0  0  0  0  0999 V2000
    2.4163    1.1327    1.5556 C   0  0  0  0  0  0  0  0  0  0  0  0
    3.7970    1.1621    1.3549 C   0  0  0  0  0  0  0  0  0  0  0  0
    4.3230    0.6580    0.1726 C   0  0  0  0  0  0  0  0  0  0  0  0
    5.6657    0.6607   -0.0662 O   0  0  0  0  0  0  0  0  0  0  0  0
    3.4912    0.1321   -0.8088 C   0  0  0  0  0  0  0  0  0  0  0  0
    2.1008    0.1074   -0.6210 C   0  0  0  0  0  0  0  0  0  0  0  0
    1.5594    0.5960    0.5807 C   0  0  0  0  0  0  0  0  0  0  0  0
    1.2307   -0.5025   -1.6914 C   0  0  0  0  0  0  0  0  0  0  0  0
   -0.2556   -0.1346   -1.5597 C   0  0  0  0  0  0  0  0  0  0  0  0
   -0.7186   -0.3209   -0.1031 C   0  0  0  0  0  0  0  0  0  0  0  0
    0.0705    0.6164    0.8246 C   0  0  0  0  0  0  0  0  0  0  0  0
   -2.2263   -0.0706    0.0449 C   0  0  0  0  0  0  0  0  0  0  0  0
   -3.0414   -0.9188   -0.9262 C   0  0  0  0  0  0  0  0  0  0  0  0
   -2.5917   -0.7021   -2.3666 C   0  0  0  0  0  0  0  0  0  0  0  0
   -1.0995   -0.9731   -2.5305 C   0  0  0  0  0  0  0  0  0  0  0  0
    2.0062    1.5323    2.4806 H   0  0  0  0  0  0  0  0  0  0  0  0
    4.4371    1.5786    2.1255 H   0  0  0  0  0  0  0  0  0  0  0  0
    6.1130    1.0532    0.7010 H   0  0  0  0  0  0  0  0  0  0  0  0
    3.9305   -0.2597   -1.7228 H   0  0  0  0  0  0  0  0  0  0  0  0
    1.5869   -0.1824   -2.6787 H   0  0  0  0  0  0  0  0  0  0  0  0
    1.3523   -1.5922   -1.6359 H   0  0  0  0  0  0  0  0  0  0  0  0
   -0.3768    0.9249   -1.8293 H   0  0  0  0  0  0  0  0  0  0  0  0
   -0.5137   -1.3594    0.1958 H   0  0  0  0  0  0  0  0  0  0  0  0
   -0.2725    1.6506    0.6908 H   0  0  0  0  0  0  0  0  0  0  0  0
   -0.1331    0.3353    1.8656 H   0  0  0  0  0  0  0  0  0  0  0  0
   -2.4488    0.9893   -0.1339 H   0  0  0  0  0  0  0  0  0  0  0  0
   -2.5410   -0.2911    1.0719 H   0  0  0  0  0  0  0  0  0  0  0  0
   -2.9366   -1.9788   -0.6640 H   0  0  0  0  0  0  0  0  0  0  0  0
   -4.1041   -0.6692   -0.8305 H   0  0  0  0  0  0  0  0  0  0  0  0
   -3.1607   -1.3599   -3.0331 H   0  0  0  0  0  0  0  0  0  0  0  0
   -2.8123    0.3289   -2.6693 H   0  0  0  0  0  0  0  0  0  0  0  0
   -0.8026   -0.7571   -3.5637 H   0  0  0  0  0  0  0  0  0  0  0  0
   -0.9106   -2.0414   -2.3634 H   0  0  0  0  0  0  0  0  0  0  0  0
  1  2  2  0
  2  3  1  0
  3  4  1  0
  3  5  2  0
  5  6  1  0
  6  7  2  0
  6  8  1  0
  8  9  1  0
  9 10  1  0
 10 11  1  0
 10 12  1  0
 12 13  1  0
 13 14  1  0
 14 15  1  0
  7  1  1  0
 11  7  1  0
 15  9  1  0
  1 16  1  0
  2 17  1  0
  4 18  1  0
  5 19  1  0
  8 20  1  0
  8 21  1  0
  9 22  1  0
 10 23  1  0
 11 24  1  0
 11 25  1  0
 12 26  1  0
 12 27  1  0
 13 28  1  0
 13 29  1  0
 14 30  1  0
 14 31  1  0
 15 32  1  0
 15 33  1  0
M  END
>  <mol_id>  (47) 
Z1513879239

>  <drugclip_rank>  (47) 
47

>  <conformer>  (47) 
0

>  <align_rmsd>  (47) 
0.041

$$$$
OSSM_006002
     RDKit          3D

 28 29  0  0  0  0  0  0  0  0999 V2000
    2.2332    1.9660   -0.4507 C   0  0  0  0  0  0  0  0  0  0  0  0
    3.6238    1.9227   -0.5743 C   0  0  0  0  0  0  0  0  0  0  0  0
    4.3508    0.9882    0.1522 C   0  0  0  0  0  0  0  0  0  0  0  0
    5.7056    0.9798    0.0005 O   0  0  0  0  0  0  0  0  0  0  0  0
    3.7110    0.0916    1.0008 C   0  0  0  0  0  0  0  0  0  0  0  0
    2.3192    0.1363    1.1237 C   0  0  0  0  0  0  0  0  0  0  0  0
    1.5654    1.0782    0.4067 C   0  0  0  0  0  0  0  0  0  0  0  0
    0.0863    1.0898    0.5387 C   0  0  0  0  0  0  0  0  0  0  0  0
   -0.5205    2.2651    0.7923 C   0  0  0  0  0  0  0  0  0  0  0  0
   -0.7622   -0.1215    0.4062 C   0  0  0  0  0  0  0  0  0  0  0  0
   -0.6027   -0.9628   -0.7045 C   0  0  0  0  0  0  0  0  0  0  0  0
   -1.3763   -2.1181   -0.8371 C   0  0  0  0  0  0  0  0  0  0  0  0
   -2.3071   -2.4397    0.1425 C   0  0  0  0  0  0  0  0  0  0  0  0
   -3.0404   -3.5764   -0.0264 O   0  0  0  0  0  0  0  0  0  0  0  0
   -2.4772   -1.6265    1.2577 C   0  0  0  0  0  0  0  0  0  0  0  0
   -1.7022   -0.4704    1.3893 C   0  0  0  0  0  0  0  0  0  0  0  0
    1.6749    2.6911   -1.0380 H   0  0  0  0  0  0  0  0  0  0  0  0
    4.1355    2.6125   -1.2391 H   0  0  0  0  0  0  0  0  0  0  0  0
    6.0746    0.2764    0.5593 H   0  0  0  0  0  0  0  0  0  0  0  0
    4.2694   -0.6449    1.5693 H   0  0  0  0  0  0  0  0  0  0  0  0
    1.8241   -0.5693    1.7877 H   0  0  0  0  0  0  0  0  0  0  0  0
   -1.5996    2.3490    0.8805 H   0  0  0  0  0  0  0  0  0  0  0  0
    0.0400    3.1868    0.9186 H   0  0  0  0  0  0  0  0  0  0  0  0
    0.1232   -0.7216   -1.4780 H   0  0  0  0  0  0  0  0  0  0  0  0
   -1.2507   -2.7630   -1.7020 H   0  0  0  0  0  0  0  0  0  0  0  0
   -3.6503   -3.6662    0.7238 H   0  0  0  0  0  0  0  0  0  0  0  0
   -3.1971   -1.8732    2.0312 H   0  0  0  0  0  0  0  0  0  0  0  0
   -1.8292    0.1529    2.2715 H   0  0  0  0  0  0  0  0  0  0  0  0
  1  2  2  0
  2  3  1  0
  3  4  1  0
  3  5  2  0
  5  6  1  0
  6  7  2  0
  7  8  1  0
  8  9  2  0
  8 10  1  0
 10 11  2  0
 11 12  1  0
 12 13  2  0
 13 14  1  0
 13 15  1  0
 15 16  2  0
  7  1  1  0
 16 10  1  0
  1 17  1  0
  2 18  1  0
  4 19  1  0
  5 20  1  0
  6 21  1  0
  9 22  1  0
  9 23  1  0
 11 24  1  0
 12 25  1  0
 14 26  1  0
 15 27  1  0
 16 28  1  0
M  END
>  <mol_id>  (48) 
OSSM_006002

>  <drugclip_rank>  (48) 
48

>  <conformer>  (48) 
0

>  <align_rmsd>  (48) 
0.573

$$$$
Z5020304780
     RDKit          3D

 29 31  0  0  0  0  0  0  0  0999 V2000
   -1.9376   -0.6400    4.1584 C   0  0  0  0  0  0  0  0  0  0  0  0
   -2.5530    0.2937    3.1678 C   0  0  0  0  0  0  0  0  0  0  0  0
   -3.9115    0.5366    3.0722 C   0  0  0  0  0  0  0  0  0  0  0  0
   -4.3064    1.6409    1.8308 S   0  0  0  0  0  0  0  0  0  0  0  0
   -2.6643    1.8200    1.3974 C   0  0  0  0  0  0  0  0  0  0  0  0
   -1.8250    1.0535    2.1827 C   0  0  0  0  0  0  0  0  0  0  0  0
   -0.3847    1.0828    1.9704 C   0  0  0  0  0  0  0  0  0  0  0  0
    0.4569    1.6023    2.9565 C   0  0  0  0  0  0  0  0  0  0  0  0
    1.8394    1.6282    2.7574 C   0  0  0  0  0  0  0  0  0  0  0  0
    0.1651    0.5862    0.7823 C   0  0  0  0  0  0  0  0  0  0  0  0
    1.5533    0.6049    0.5691 C   0  0  0  0  0  0  0  0  0  0  0  0
    2.4029    1.1338    1.5704 C   0  0  0  0  0  0  0  0  0  0  0  0
    2.1156    0.1082   -0.6180 C   0  0  0  0  0  0  0  0  0  0  0  0
    3.4964    0.1336   -0.8159 C   0  0  0  0  0  0  0  0  0  0  0  0
    4.3219    0.6549    0.1702 C   0  0  0  0  0  0  0  0  0  0  0  0
    3.7915    1.1534    1.3572 C   0  0  0  0  0  0  0  0  0  0  0  0
    5.6651    0.6600   -0.0662 O   0  0  0  0  0  0  0  0  0  0  0  0
   -1.2171   -1.3041    3.6702 H   0  0  0  0  0  0  0  0  0  0  0  0
   -1.4206   -0.0763    4.9413 H   0  0  0  0  0  0  0  0  0  0  0  0
   -2.6968   -1.2672    4.6373 H   0  0  0  0  0  0  0  0  0  0  0  0
   -4.7015    0.1108    3.6760 H   0  0  0  0  0  0  0  0  0  0  0  0
   -2.3940    2.4871    0.5898 H   0  0  0  0  0  0  0  0  0  0  0  0
    0.0427    1.9973    3.8813 H   0  0  0  0  0  0  0  0  0  0  0  0
    2.4732    2.0409    3.5392 H   0  0  0  0  0  0  0  0  0  0  0  0
   -0.4937    0.1742    0.0201 H   0  0  0  0  0  0  0  0  0  0  0  0
    1.4812   -0.3033   -1.3999 H   0  0  0  0  0  0  0  0  0  0  0  0
    3.9247   -0.2520   -1.7367 H   0  0  0  0  0  0  0  0  0  0  0  0
    4.4481    1.5584    2.1214 H   0  0  0  0  0  0  0  0  0  0  0  0
    6.1151    1.0525    0.6996 H   0  0  0  0  0  0  0  0  0  0  0  0
  1  2  1  0
  2  3  2  0
  3  4  1  0
  4  5  1  0
  5  6  2  0
  6  7  1  0
  7  8  2  0
  8  9  1  0
  7 10  1  0
 10 11  2  0
 11 12  1  0
 11 13  1  0
 13 14  2  0
 14 15  1  0
 15 16  2  0
 15 17  1  0
  6  2  1  0
 12  9  2  0
 16 12  1  0
  1 18  1  0
  1 19  1  0
  1 20  1  0
  3 21  1  0
  5 22  1  0
  8 23  1  0
  9 24  1  0
 10 25  1  0
 13 26  1  0
 14 27  1  0
 16 28  1  0
 17 29  1  0
M  END
>  <mol_id>  (49) 
Z5020304780

>  <drugclip_rank>  (49) 
49

>  <conformer>  (49) 
3

>  <align_rmsd>  (49) 
0.04

$$$$
STK546411
     RDKit          3D

 28 29  0  0  0  0  0  0  0  0999 V2000
    2.2332    1.9660   -0.4507 C   0  0  0  0  0  0  0  0  0  0  0  0
    3.6238    1.9227   -0.5743 C   0  0  0  0  0  0  0  0  0  0  0  0
    4.3508    0.9882    0.1522 C   0  0  0  0  0  0  0  0  0  0  0  0
    5.7056    0.9798    0.0005 O   0  0  0  0  0  0  0  0  0  0  0  0
    3.7110    0.0916    1.0008 C   0  0  0  0  0  0  0  0  0  0  0  0
    2.3192    0.1363    1.1237 C   0  0  0  0  0  0  0  0  0  0  0  0
    1.5654    1.0782    0.4067 C   0  0  0  0  0  0  0  0  0  0  0  0
    0.0863    1.0898    0.5387 C   0  0  0  0  0  0  0  0  0  0  0  0
   -0.5205    2.2651    0.7923 C   0  0  0  0  0  0  0  0  0  0  0  0
   -0.7622   -0.1215    0.4062 C   0  0  0  0  0  0  0  0  0  0  0  0
   -0.6027   -0.9628   -0.7045 C   0  0  0  0  0  0  0  0  0  0  0  0
   -1.3763   -2.1181   -0.8371 C   0  0  0  0  0  0  0  0  0  0  0  0
   -2.3071   -2.4397    0.1425 C   0  0  0  0  0  0  0  0  0  0  0  0
   -3.0404   -3.5764   -0.0264 O   0  0  0  0  0  0  0  0  0  0  0  0
   -2.4772   -1.6265    1.2577 C   0  0  0  0  0  0  0  0  0  0  0  0
   -1.7022   -0.4704    1.3893 C   0  0  0  0  0  0  0  0  0  0  0  0
    1.6749    2.6911   -1.0380 H   0  0  0  0  0  0  0  0  0  0  0  0
    4.1355    2.6125   -1.2391 H   0  0  0  0  0  0  0  0  0  0  0  0
    6.0746    0.2764    0.5593 H   0  0  0  0  0  0  0  0  0  0  0  0
    4.2694   -0.6449    1.5693 H   0  0  0  0  0  0  0  0  0  0  0  0
    1.8241   -0.5693    1.7877 H   0  0  0  0  0  0  0  0  0  0  0  0
   -1.5996    2.3490    0.8805 H   0  0  0  0  0  0  0  0  0  0  0  0
    0.0400    3.1868    0.9186 H   0  0  0  0  0  0  0  0  0  0  0  0
    0.1232   -0.7216   -1.4780 H   0  0  0  0  0  0  0  0  0  0  0  0
   -1.2507   -2.7630   -1.7020 H   0  0  0  0  0  0  0  0  0  0  0  0
   -3.6503   -3.6662    0.7238 H   0  0  0  0  0  0  0  0  0  0  0  0
   -3.1971   -1.8732    2.0312 H   0  0  0  0  0  0  0  0  0  0  0  0
   -1.8292    0.1529    2.2715 H   0  0  0  0  0  0  0  0  0  0  0  0
  1  2  2  0
  2  3  1  0
  3  4  1  0
  3  5  2  0
  5  6  1  0
  6  7  2  0
  7  8  1  0
  8  9  2  0
  8 10  1  0
 10 11  2  0
 11 12  1  0
 12 13  2  0
 13 14  1  0
 13 15  1  0
 15 16  2  0
  7  1  1  0
 16 10  1  0
  1 17  1  0
  2 18  1  0
  4 19  1  0
  5 20  1  0
  6 21  1  0
  9 22  1  0
  9 23  1  0
 11 24  1  0
 12 25  1  0
 14 26  1  0
 15 27  1  0
 16 28  1  0
M  END
>  <mol_id>  (50) 
STK546411

>  <drugclip_rank>  (50) 
50

>  <conformer>  (50) 
0

>  <align_rmsd>  (50) 
0.573

$$$$
