STK803083
     RDKit          3D

 18 19  0  0  0  0  0  0  0  0999 V2000
   -1.7754   -0.5235   -0.8905 C   0  0  0  0  0  0  0  0  0  0  0  0
   -2.6360   -1.6205   -0.8176 C   0  0  0  0  0  0  0  0  0  0  0  0
   -2.5014   -2.5227    0.2337 C   0  0  0  0  0  0  0  0  0  0  0  0
   -3.3189   -3.6083    0.3448 O   0  0  0  0  0  0  0  0  0  0  0  0
   -1.5314   -2.3447    1.2168 C   0  0  0  0  0  0  0  0  0  0  0  0
   -0.6749   -1.2468    1.1437 C   0  0  0  0  0  0  0  0  0  0  0  0
    0.2521   -1.0453    2.1266 O   0  0  0  0  0  0  0  0  0  0  0  0
   -0.7790   -0.3445    0.0793 C   0  0  0  0  0  0  0  0  0  0  0  0
    0.0895    0.8458   -0.0426 C   0  0  0  0  0  0  0  0  0  0  0  0
   -0.4419    1.9415   -0.2331 O   0  0  0  0  0  0  0  0  0  0  0  0
    1.5742    0.7710    0.0244 C   0  0  0  0  0  0  0  0  0  0  0  0
    2.3149    1.9361    0.2870 C   0  0  0  0  0  0  0  0  0  0  0  0
    1.7320    3.1617    0.4848 O   0  0  0  0  0  0  0  0  0  0  0  0
    3.7072    1.9023    0.3531 C   0  0  0  0  0  0  0  0  0  0  0  0
    4.3668    0.6988    0.1334 C   0  0  0  0  0  0  0  0  0  0  0  0
    5.7267    0.6147    0.1837 O   0  0  0  0  0  0  0  0  0  0  0  0
    3.6572   -0.4618   -0.1547 C   0  0  0  0  0  0  0  0  0  0  0  0
    2.2611   -0.4277   -0.2157 C   0  0  0  0  0  0  0  0  0  0  0  0
  1  2  2  0
  2  3  1  0
  3  4  1  0
  3  5  2  0
  5  6  1  0
  6  7  1  0
  6  8  2  0
  8  9  1  0
  9 10  2  0
  9 11  1  0
 11 12  2  0
 12 13  1  0
 12 14  1  0
 14 15  2  0
 15 16  1  0
 15 17  1  0
 17 18  2  0
  8  1  1  0
 18 11  1  0
M  END
>  <mol_id>  (1) 
STK803083

>  <drugclip_rank>  (1) 
25

>  <conformer>  (1) 
0

>  <align_rmsd>  (1) 
0.858

$$$$
