4LDL_XQC_A1401
     RDKit          3D

 23 24  0  0  0  0  0  0  0  0999 V2000
  -33.4950    6.4470    5.9920 C   0  0  0  0  0  0  0  0  0  0  0  0
  -33.3760    6.6350    7.5010 C   0  0  2  0  0  0  0  0  0  0  0  0
  -32.2370    5.7850    8.0520 C   0  0  0  0  0  0  0  0  0  0  0  0
  -34.6950    6.3220    8.2130 C   0  0  0  0  0  0  0  0  0  0  0  0
  -34.8980    4.8450    8.4930 C   0  0  0  0  0  0  0  0  0  0  0  0
  -35.2080    3.9550    7.4680 C   0  0  0  0  0  0  0  0  0  0  0  0
  -35.3990    2.6060    7.7420 C   0  0  0  0  0  0  0  0  0  0  0  0
  -35.2960    2.1420    9.0490 C   0  0  0  0  0  0  0  0  0  0  0  0
  -34.9980    3.0280   10.0770 C   0  0  0  0  0  0  0  0  0  0  0  0
  -34.8080    4.3770    9.8000 C   0  0  0  0  0  0  0  0  0  0  0  0
  -31.8130    8.5440    7.1610 C   0  0  0  0  0  0  0  0  0  0  0  0
  -31.4010    9.8410    7.8460 C   0  0  0  0  0  0  0  0  0  0  0  0
  -30.1490   10.3210    7.2150 C   0  0  0  0  0  0  0  0  0  0  0  0
  -29.9830   11.6610    6.8880 C   0  0  0  0  0  0  0  0  0  0  0  0
  -28.7970   12.0860    6.2970 C   0  0  0  0  0  0  0  0  0  0  0  0
  -27.7780   11.1740    6.0400 C   0  0  0  0  0  0  0  0  0  0  0  0
  -27.9440    9.8410    6.3720 C   0  0  0  0  0  0  0  0  0  0  0  0
  -29.1280    9.4150    6.9600 C   0  0  0  0  0  0  0  0  0  0  0  0
  -33.0370    8.0230    7.7380 N   0  0  0  0  0  0  0  0  0  0  0  0
  -35.4850    0.8200    9.3210 O   0  0  0  0  0  0  0  0  0  0  0  0
  -32.4510   10.8090    7.7360 O   0  0  0  0  0  0  0  0  0  0  0  0
  -26.6150   11.5900    5.4620 O   0  0  0  0  0  0  0  0  0  0  0  0
  -26.9480    8.9470    6.1220 O   0  0  0  0  0  0  0  0  0  0  0  0
  2  1  1  6
  3  2  1  0
  4  2  1  0
  5  4  1  0
  6  5  2  0
  7  6  1  0
  8  7  2  0
  9  8  1  0
 10  9  2  0
 10  5  1  0
 12 11  1  0
 13 12  1  0
 14 13  2  0
 15 14  1  0
 16 15  2  0
 17 16  1  0
 18 17  2  0
 18 13  1  0
 19  2  1  0
 19 11  1  0
 20  8  1  0
 12 21  1  0
 22 16  1  0
 23 17  1  0
M  END
>  <_TriposChargeType>  (1) 
GASTEIGER

$$$$
