@<TRIPOS>MOLECULE
8S9B_LQO_A2003
 18 18 0 0 0
SMALL
GASTEIGER

@<TRIPOS>ATOM
      1 C         124.5760  124.2260  108.0750 C.ar    1  UNL1       -0.0003
      2 C         123.0910  125.5870  109.4640 C.ar    1  UNL1       -0.0003
      3 C         123.6840  124.5520  106.8890 C.ar    1  UNL1       -0.0026
      4 C         122.3220  125.8640  108.4400 C.ar    1  UNL1       -0.0026
      5 C         121.6740  125.6860  105.9300 C.3     1  UNL1        0.1415
      6 C         122.6330  125.3150  107.0580 C.ar    1  UNL1       -0.0006
      7 C         121.9160  123.6820  102.6170 C.3     1  UNL1        0.2021
      8 C         118.9690  122.7210  100.2390 C.3     1  UNL1        0.0964
      9 C         124.3040  124.6990  109.2660 C.ar    1  UNL1       -0.0000
     10 C         119.9680  123.5950  100.9790 C.2     1  UNL1        0.2423
     11 C         121.3670  124.0850  103.9640 C.2     1  UNL1        0.2641
     12 C         123.1470  122.8170  102.8730 C.3     1  UNL1        0.1732
     13 C         123.9490  122.7310  100.6690 C.3     1  UNL1        0.1742
     14 N         120.9080  122.9460  101.8740 N.am    1  UNL1       -0.1951
     15 N         122.0580  125.1680  104.6360 N.am    1  UNL1       -0.1990
     16 O         120.4330  123.5100  104.4040 O.2     1  UNL1       -0.2714
     17 O         119.9510  124.7650  100.8030 O.2     1  UNL1       -0.2733
     18 O         124.1640  123.1580  101.9800 O.3     1  UNL1       -0.3487
@<TRIPOS>BOND
     1     3     1   ar
     2     4     2   ar
     3     6     3   ar
     4     6     5    1
     5     6     4   ar
     6     9     1   ar
     7     9     2   ar
     8    10     8    1
     9    11     7    1
    10     7    12    1
    11    14    10   am
    12    14     7    1
    13    15    11   am
    14    15     5    1
    15    16    11    2
    16    17    10    2
    17    18    13    1
    18    18    12    1
