@<TRIPOS>MOLECULE
8S9C_N6W_A2003
 18 20 0 0 0
SMALL
GASTEIGER

@<TRIPOS>ATOM
      1 C         124.9160  123.3060  104.2100 C.ar    1  UNL1        0.0596
      2 C         127.4150  123.2310  103.0300 C.ar    1  UNL1        0.0001
      3 C         127.2200  122.6470  104.2620 C.ar    1  UNL1        0.0012
      4 C         126.3640  123.8530  102.3870 C.ar    1  UNL1        0.0013
      5 C         125.1160  123.8900  102.9680 C.ar    1  UNL1        0.0153
      6 C         123.1360  125.4490  108.4250 C.ar    1  UNL1        0.0001
      7 C         122.4510  125.8380  107.2920 C.ar    1  UNL1        0.0013
      8 C         122.6100  125.1500  106.1080 C.ar    1  UNL1        0.0153
      9 C         123.4600  124.0570  106.0500 C.ar    1  UNL1        0.0596
     10 C         124.1640  123.6400  107.1850 C.ar    1  UNL1        0.0141
     11 C         123.9790  124.3620  108.3740 C.ar    1  UNL1        0.0012
     12 C         125.0710  122.4930  107.1910 C.2     1  UNL1        0.0013
     13 C         125.7920  122.0370  106.1830 C.2     1  UNL1        0.0013
     14 C         125.9620  122.6660  104.8770 C.ar    1  UNL1        0.0141
     15 C         122.5390  122.7300  104.2010 C.2     1  UNL1        0.3505
     16 N         123.6080  123.3420  104.8090 N.am    1  UNL1       -0.2193
     17 N         121.3210  123.1600  104.5260 N.am    1  UNL1       -0.0686
     18 O         122.7210  121.8160  103.3760 O.2     1  UNL1       -0.2483
@<TRIPOS>BOND
     1     3     2   ar
     2     4     2   ar
     3     5     1   ar
     4     5     4   ar
     5     7     6   ar
     6     8     7   ar
     7     9     8   ar
     8    10     9   ar
     9    11    10   ar
    10    11     6   ar
    11    12    10    1
    12    13    12    2
    13    14     1   ar
    14    14    13    1
    15    14     3   ar
    16    16    15   am
    17    16     9    1
    18    16     1    1
    19    17    15   am
    20    18    15    2
