@<TRIPOS>MOLECULE
8THH_IYJ_A2004
 16 17 0 0 0
SMALL
GASTEIGER

@<TRIPOS>ATOM
      1 C         122.4970  123.1140  102.5710 C.ar    1  UNL1        0.0698
      2 C         121.9800  122.5800  101.4040 C.ar    1  UNL1        0.0682
      3 C         120.6160  122.3680  101.2930 C.ar    1  UNL1        0.0122
      4 C         121.6500  123.4380  103.6120 C.ar    1  UNL1        0.0337
      5 C         122.2650  124.0240  104.8780 C.ar    1  UNL1        0.1385
      6 C         120.2930  123.2220  103.5070 C.ar    1  UNL1        0.0025
      7 C         122.1900  125.3870  105.0650 C.ar    1  UNL1        0.1919
      8 C         119.7740  122.6880  102.3430 C.ar    1  UNL1        0.0010
      9 C         123.2460  125.0860  106.9010 C.ar    1  UNL1        0.2763
     10 N         122.8560  123.2010  105.7290 N.ar    1  UNL1       -0.1422
     11 N         122.6980  125.9700  106.1260 N.ar    1  UNL1       -0.1900
     12 N         121.5220  126.1880  104.0600 N.pl3   1  UNL1       -0.1054
     13 N         123.3950  123.7770  106.8460 N.ar    1  UNL1       -0.1091
     14 N         123.8880  125.4480  108.1490 N.pl3   1  UNL1       -0.0847
     15 CL        124.2500  123.3950  102.7350 Cl      1  UNL1       -0.0813
     16 CL        123.0700  122.1660  100.0490 Cl      1  UNL1       -0.0814
@<TRIPOS>BOND
     1     2     1   ar
     2     3     2   ar
     3     4     1   ar
     4     5     4    1
     5     6     4   ar
     6     7     5   ar
     7     8     6   ar
     8     8     3   ar
     9    10     5   ar
    10    11     9   ar
    11    11     7   ar
    12    12     7    1
    13    13    10   ar
    14    13     9   ar
    15    14     9    1
    16    15     1    1
    17    16     2    1
