4M0F_1YK_B605
     RDKit          3D

 38 42  0  0  0  0  0  0  0  0999 V2000
   89.2240   82.5460   -3.9640 C   0  0  0  0  0  0  0  0  0  0  0  0
   90.1710   83.4380   -4.7460 C   0  0  1  0  0  0  0  0  0  0  0  0
   91.5430   82.7420   -4.8770 C   0  0  0  0  0  0  0  0  0  0  0  0
   91.5240   81.6400   -5.9320 C   0  0  0  0  0  0  0  0  0  0  0  0
   91.0730   82.1270   -7.2850 C   0  0  2  0  0  0  0  0  0  0  0  0
   89.6640   82.7430   -7.2360 C   0  0  1  0  0  0  0  0  0  0  0  0
   89.6680   83.8540   -6.1510 C   0  0  1  0  0  0  0  0  0  0  0  0
   88.3030   84.4840   -6.0030 C   0  0  0  0  0  0  0  0  0  0  0  0
   88.3650   85.5130   -4.8790 C   0  0  0  0  0  0  0  0  0  0  0  0
   89.3290   85.4970   -3.9600 C   0  0  0  0  0  0  0  0  0  0  0  0
   89.3700   86.5310   -2.8500 C   0  0  0  0  0  0  0  0  0  0  0  0
   88.4120   87.5280   -2.8480 C   0  0  0  0  0  0  0  0  0  0  0  0
   87.4050   87.5660   -3.8490 O   0  0  0  0  0  0  0  0  0  0  0  0
   87.3000   86.5510   -4.7880 C   0  0  0  0  0  0  0  0  0  0  0  0
   86.3340   86.5550   -5.5070 O   0  0  0  0  0  0  0  0  0  0  0  0
   88.2910   88.6440   -1.8370 C   0  0  0  0  0  0  0  0  0  0  0  0
   89.2170   88.9850   -0.7500 C   0  0  0  0  0  0  0  0  0  0  0  0
   88.9310   90.0570    0.0790 C   0  0  0  0  0  0  0  0  0  0  0  0
   87.8690   90.8180   -0.0400 C   0  0  0  0  0  0  0  0  0  0  0  0
   86.9710   90.5880   -0.9610 C   0  0  0  0  0  0  0  0  0  0  0  0
   87.1310   89.5540   -1.8630 C   0  0  0  0  0  0  0  0  0  0  0  0
   85.8110   91.3880   -1.0960 O   0  0  0  0  0  0  0  0  0  0  0  0
   84.5620   90.8350   -0.6690 C   0  0  0  0  0  0  0  0  0  0  0  0
   87.6660   91.8670    0.8900 O   0  0  0  0  0  0  0  0  0  0  0  0
   87.7370   93.2050    0.4380 C   0  0  0  0  0  0  0  0  0  0  0  0
   89.8630   90.3000    1.0980 O   0  0  0  0  0  0  0  0  0  0  0  0
   90.1520   89.1500    1.8770 C   0  0  0  0  0  0  0  0  0  0  0  0
   90.3620   84.5720   -3.9480 O   0  0  0  0  0  0  0  0  0  0  0  0
   90.6110   84.8360   -6.5450 O   0  0  0  0  0  0  0  0  0  0  0  0
   89.4560   83.2900   -8.6260 C   0  0  0  0  0  0  0  0  0  0  0  0
   88.9940   84.3950   -8.8710 O   0  0  0  0  0  0  0  0  0  0  0  0
   89.8210   82.4440   -9.7860 C   0  0  0  0  0  0  0  0  0  0  0  0
   90.6380   81.3720   -9.6550 C   0  0  0  0  0  0  0  0  0  0  0  0
   91.2880   80.9590   -8.3080 C   0  0  1  0  0  0  0  0  0  0  0  0
   92.7900   80.7470   -8.4970 C   0  0  0  0  0  0  0  0  0  0  0  0
   90.8060   79.5800   -7.8900 C   0  0  0  0  0  0  0  0  0  0  0  0
   88.5150   81.7440   -7.0280 C   0  0  0  0  0  0  0  0  0  0  0  0
   91.9300   83.1650   -7.7020 O   0  0  0  0  0  0  0  0  0  0  0  0
  2  1  1  1
  3  2  1  0
  4  3  1  0
  5  4  1  0
  6  5  1  0
  7  6  1  0
  7  2  1  0
  8  7  1  0
  9  8  1  0
 10  9  2  0
 11 10  1  0
 12 11  2  0
 13 12  1  0
 14  9  1  0
 14 13  1  0
 15 14  2  0
 16 12  1  0
 17 16  2  0
 18 17  1  0
 19 18  2  0
 20 19  1  0
 21 20  2  0
 21 16  1  0
 22 20  1  0
 23 22  1  0
 24 19  1  0
 25 24  1  0
 26 18  1  0
 27 26  1  0
 28 10  1  0
 28  2  1  0
  7 29  1  6
 30  6  1  0
 31 30  2  0
 32 30  1  0
 33 32  2  0
 34 33  1  0
 34  5  1  0
 34 35  1  6
 36 34  1  0
  6 37  1  1
  5 38  1  6
M  END
>  <_TriposChargeType>  (1) 
GASTEIGER

$$$$
