4FRR_0VC_F301
     RDKit          3D

 19 21  0  0  0  0  0  0  0  0999 V2000
  174.9640  116.0150  186.4120 C   0  0  0  0  0  0  0  0  0  0  0  0
  173.8300  116.2200  187.2610 O   0  0  0  0  0  0  0  0  0  0  0  0
  173.6750  117.5840  187.6840 C   0  0  0  0  0  0  0  0  0  0  0  0
  173.0460  117.6810  189.0790 C   0  0  0  0  0  0  0  0  0  0  0  0
  171.9410  118.7520  189.0640 C   0  0  0  0  0  0  0  0  0  0  0  0
  172.3050  120.0310  189.8320 C   0  0  0  0  0  0  0  0  0  0  0  0
  171.3380  119.0190  190.4450 C   0  0  0  0  0  0  0  0  0  0  0  0
  171.6710  121.2520  189.2130 C   0  0  0  0  0  0  0  0  0  0  0  0
  172.2230  122.4890  189.5140 C   0  0  0  0  0  0  0  0  0  0  0  0
  171.7800  123.6410  189.0010 N   0  0  0  0  0  0  0  0  0  0  0  0
  170.7400  123.6830  188.1520 C   0  0  0  0  0  0  0  0  0  0  0  0
  170.1300  122.4850  187.8120 C   0  0  0  0  0  0  0  0  0  0  0  0
  170.5810  121.2530  188.3160 C   0  0  0  0  0  0  0  0  0  0  0  0
  169.0910  122.5770  186.9670 O   0  0  0  0  0  0  0  0  0  0  0  0
  168.0790  121.5690  186.8910 C   0  0  0  0  0  0  0  0  0  0  0  0
  166.9580  122.1610  186.0310 C   0  0  0  0  0  0  0  0  0  0  0  0
  167.4150  122.4390  184.5920 C   0  0  0  0  0  0  0  0  0  0  0  0
  167.0850  123.9100  184.7980 C   0  0  0  0  0  0  0  0  0  0  0  0
  166.7140  123.5940  186.1690 N   0  0  0  0  0  0  0  0  0  0  0  0
  2  1  1  0
  3  2  1  0
  4  3  1  0
  5  4  1  0
  6  5  1  0
  7  5  1  0
  7  6  1  0
  6  8  1  0
  9  8  2  0
 10  9  1  0
 11 10  2  0
 12 11  1  0
 13 12  2  0
 13  8  1  0
 14 12  1  0
 15 14  1  0
 16 15  1  0
 17 16  1  0
 18 17  1  0
 19 18  1  0
 19 16  1  0
M  END
>  <_TriposChargeType>  (1) 
GASTEIGER

$$$$
