@<TRIPOS>MOLECULE
1HWR_216_B216
 30 32 0 0 0
SMALL
GASTEIGER

@<TRIPOS>ATOM
      1 O          -8.1700   14.4830   27.6890 O.2     1  UNL1       -0.2523
      2 O         -10.2590   19.5520   26.7060 O.3     1  UNL1       -0.2186
      3 O         -11.9080   18.5940   28.8340 O.3     1  UNL1       -0.2186
      4 N          -8.7990   16.2710   26.6960 N.am    1  UNL1       -0.2586
      5 N          -9.5540   15.7720   28.8650 N.am    1  UNL1       -0.2586
      6 C          -8.8390   15.4880   27.7570 C.2     1  UNL1        0.3077
      7 C          -8.9710   17.7280   26.7480 C.3     1  UNL1        0.1144
      8 C         -10.3420   18.2270   27.0780 C.3     1  UNL1        0.2021
      9 C         -10.6670   18.0390   28.5150 C.3     1  UNL1        0.2021
     10 C         -10.8020   16.5670   28.8610 C.3     1  UNL1        0.1144
     11 C          -8.4050   15.6820   25.4140 C.3     1  UNL1        0.1215
     12 C          -9.3570   16.0730   24.3100 C.2     1  UNL1       -0.0046
     13 C          -8.9310   16.5920   23.1530 C.2     1  UNL1       -0.0031
     14 C          -7.8170   18.3850   27.5230 C.3     1  UNL1        0.0489
     15 C          -6.5000   18.1790   26.8280 C.ar    1  UNL1       -0.0204
     16 C          -5.6920   17.0680   27.1600 C.ar    1  UNL1       -0.0042
     17 C          -4.4470   16.8640   26.5250 C.ar    1  UNL1       -0.0003
     18 C          -4.0020   17.7640   25.5420 C.ar    1  UNL1       -0.0000
     19 C          -4.8230   18.8820   25.2010 C.ar    1  UNL1       -0.0003
     20 C          -6.0750   19.0970   25.8420 C.ar    1  UNL1       -0.0042
     21 C         -11.9220   15.7660   28.1260 C.3     1  UNL1        0.0489
     22 C         -12.5210   14.6050   28.9080 C.ar    1  UNL1       -0.0204
     23 C         -13.3970   14.9020   29.9810 C.ar    1  UNL1       -0.0042
     24 C         -14.0260   13.8780   30.7070 C.ar    1  UNL1       -0.0003
     25 C         -13.7600   12.5400   30.3360 C.ar    1  UNL1       -0.0000
     26 C         -12.8830   12.2310   29.2610 C.ar    1  UNL1       -0.0003
     27 C         -12.2480   13.2640   28.5350 C.ar    1  UNL1       -0.0042
     28 C          -9.2340   15.2190   30.1950 C.3     1  UNL1        0.1215
     29 C          -9.1080   16.2620   31.2940 C.2     1  UNL1       -0.0046
     30 C          -9.5370   16.0750   32.5480 C.2     1  UNL1       -0.0031
@<TRIPOS>BOND
     1     6     4   am
     2     6     5   am
     3     6     1    2
     4     7     4    1
     5     8     7    1
     6     8     2    1
     7     9     3    1
     8     9     8    1
     9    10     5    1
    10    10     9    1
    11    11     4    1
    12    12    11    1
    13    13    12    2
    14     7    14    1
    15    15    14    1
    16    16    15   ar
    17    17    16   ar
    18    18    17   ar
    19    19    18   ar
    20    20    15   ar
    21    20    19   ar
    22    10    21    1
    23    22    21    1
    24    23    22   ar
    25    24    23   ar
    26    25    24   ar
    27    26    25   ar
    28    27    26   ar
    29    27    22   ar
    30    28     5    1
    31    29    28    1
    32    30    29    2
