@<TRIPOS>MOLECULE
1ODX_0E8_A201
 39 40 0 0 0
SMALL
GASTEIGER

@<TRIPOS>ATOM
      1 O         -10.0040   15.0260   30.8190 O.2     1  UNL1       -0.2246
      2 C         -11.0520   15.4990   31.2490 C.2     1  UNL1        0.4209
      3 O         -11.1400   15.8050   32.6230 O.3     1  UNL1       -0.4408
      4 C         -10.0060   15.4440   33.4710 C.3     1  UNL1        0.1379
      5 C          -9.6480   13.9720   33.4170 C.3     1  UNL1        0.0437
      6 C         -10.4040   15.8840   34.8610 C.3     1  UNL1        0.0437
      7 C          -8.7360   16.2310   33.1220 C.3     1  UNL1        0.0437
      8 C         -12.5050   16.9260   28.3790 C.3     1  UNL1        0.1895
      9 O         -12.2670   16.5140   27.0240 O.3     1  UNL1       -0.2197
     10 C         -12.5170   15.6560   29.2400 C.3     1  UNL1        0.1347
     11 N         -12.2010   15.7940   30.6710 N.am    1  UNL1       -0.1675
     12 C         -13.9270   14.9970   29.0600 C.3     1  UNL1        0.0508
     13 C         -13.7080   13.5930   29.6000 C.ar    1  UNL1       -0.0204
     14 C         -12.9740   12.6590   28.8270 C.ar    1  UNL1       -0.0042
     15 C         -14.1300   13.2920   30.8990 C.ar    1  UNL1       -0.0042
     16 C         -12.7370   11.4030   29.3860 C.ar    1  UNL1       -0.0003
     17 C         -13.8740   12.0360   31.4400 C.ar    1  UNL1       -0.0003
     18 C         -13.1730   11.1210   30.6840 C.ar    1  UNL1       -0.0000
     19 N         -11.0490   19.0020   27.8370 N.3     1  UNL1       -0.2126
     20 C         -11.4010   17.9440   28.8080 C.3     1  UNL1        0.1234
     21 C          -9.9270   18.6130   26.9450 C.3     1  UNL1        0.1234
     22 C          -8.5870   19.1940   27.2910 C.3     1  UNL1        0.1895
     23 O          -8.3070   18.9350   28.6580 O.3     1  UNL1       -0.2197
     24 C          -7.4000   18.5700   26.5030 C.3     1  UNL1        0.1347
     25 N          -7.7070   18.3890   25.1010 N.am    1  UNL1       -0.1675
     26 C          -6.1780   19.4630   26.6330 C.3     1  UNL1        0.0508
     27 C          -4.9480   18.8820   25.9600 C.ar    1  UNL1       -0.0204
     28 C          -4.6840   17.5000   25.9800 C.ar    1  UNL1       -0.0042
     29 C          -4.0140   19.7470   25.3730 C.ar    1  UNL1       -0.0042
     30 C          -3.5580   16.9450   25.3720 C.ar    1  UNL1       -0.0003
     31 C          -2.8420   19.2100   24.8070 C.ar    1  UNL1       -0.0003
     32 C          -2.6210   17.8290   24.8140 C.ar    1  UNL1       -0.0000
     33 O          -7.9530   16.0890   25.1950 O.2     1  UNL1       -0.2246
     34 C          -7.9530   17.1880   24.6180 C.2     1  UNL1        0.4209
     35 O          -8.2020   17.3210   23.2420 O.3     1  UNL1       -0.4408
     36 C          -8.6390   16.2080   22.4260 C.3     1  UNL1        0.1379
     37 C         -10.0090   15.6490   22.8160 C.3     1  UNL1        0.0437
     38 C          -7.6480   15.0450   22.4200 C.3     1  UNL1        0.0437
     39 C          -8.7600   16.7750   21.0220 C.3     1  UNL1        0.0437
@<TRIPOS>BOND
     1     2     1    2
     2     3     2    1
     3     4     3    1
     4     4     5    1
     5     6     4    1
     6     7     4    1
     7     8     9    1
     8    10     8    1
     9    11    10    1
    10    11     2   am
    11    10    12    1
    12    13    12    1
    13    14    13   ar
    14    15    13   ar
    15    16    14   ar
    16    17    15   ar
    17    18    17   ar
    18    18    16   ar
    19    20    19    1
    20    20     8    1
    21    21    19    1
    22    22    21    1
    23    22    23    1
    24    24    22    1
    25    25    24    1
    26    24    26    1
    27    27    26    1
    28    28    27   ar
    29    29    27   ar
    30    30    28   ar
    31    31    29   ar
    32    32    31   ar
    33    32    30   ar
    34    34    33    2
    35    34    25   am
    36    35    34    1
    37    36    35    1
    38    36    37    1
    39    38    36    1
    40    39    36    1
