@<TRIPOS>MOLECULE
5DGU_5B7_A201
 42 45 0 0 0
SMALL
GASTEIGER

@<TRIPOS>ATOM
      1 C          -8.5090   16.9970   20.8770 C.ar    1  UNL1        0.1388
      2 C          -9.7640   17.0690   21.5020 C.ar    1  UNL1        0.0383
      3 C          -9.8910   16.6890   22.8530 C.ar    1  UNL1        0.0230
      4 C          -8.7910   16.2480   23.5690 C.ar    1  UNL1        0.1224
      5 C          -7.5420   16.1710   22.9590 C.ar    1  UNL1        0.0230
      6 C          -7.3890   16.5440   21.6080 C.ar    1  UNL1        0.0383
      7 S          -8.9740   15.7790   25.2640 S.O2    1  UNL1        0.0634
      8 O         -10.3230   15.2010   25.4160 O.2     1  UNL1       -0.1528
      9 O          -7.7660   14.9900   25.6360 O.2     1  UNL1       -0.1528
     10 N          -8.9110   17.1550   26.1880 N.3     1  UNL1       -0.1529
     11 C          -7.7500   18.0010   26.0180 C.3     1  UNL1        0.0958
     12 C          -7.1390   18.5200   27.3300 C.3     1  UNL1        0.0178
     13 C          -6.6700   17.3830   28.2490 C.3     1  UNL1        0.0015
     14 C          -5.9270   19.4280   27.0230 C.3     1  UNL1        0.0015
     15 C         -10.1560   17.8730   26.4150 C.3     1  UNL1        0.1304
     16 C         -10.4970   17.8500   27.9090 C.3     1  UNL1        0.1898
     17 O         -11.5290   18.8090   28.1920 O.3     1  UNL1       -0.2197
     18 C         -10.9580   16.4770   28.3950 C.3     1  UNL1        0.1347
     19 N         -11.0460   16.4520   29.8580 N.am    1  UNL1       -0.1675
     20 C         -10.3500   15.6570   30.6690 C.2     1  UNL1        0.4210
     21 O          -9.3830   14.9670   30.3100 O.2     1  UNL1       -0.2246
     22 O         -10.8280   15.6490   31.9490 O.3     1  UNL1       -0.4370
     23 C         -10.0760   14.8410   32.8590 C.3     1  UNL1        0.1803
     24 C          -9.0960   15.7870   33.5590 C.3     1  UNL1        0.0761
     25 O         -10.7640   16.2780   35.3630 O.3     1  UNL1       -0.3302
     26 C         -11.6330   15.2670   34.8490 C.3     1  UNL1        0.2411
     27 O         -12.6800   15.9010   34.1090 O.3     1  UNL1       -0.3277
     28 C         -13.2360   14.9590   33.1870 C.3     1  UNL1        0.1744
     29 C         -12.3310   13.7220   33.2110 C.3     1  UNL1        0.1532
     30 C         -11.0450   14.2630   33.8940 C.3     1  UNL1        0.1262
     31 C         -12.3310   16.0640   27.8130 C.3     1  UNL1        0.0508
     32 C         -13.6170   14.4630   29.2650 C.ar    1  UNL1       -0.0042
     33 C         -13.9230   13.2090   29.7560 C.ar    1  UNL1       -0.0003
     34 C         -13.1930   12.0770   29.3570 C.ar    1  UNL1       -0.0000
     35 C         -12.2880   12.2300   28.3270 C.ar    1  UNL1       -0.0003
     36 C         -11.9800   13.5160   27.8110 C.ar    1  UNL1       -0.0042
     37 C         -12.6430   14.6280   28.2910 C.ar    1  UNL1       -0.0204
     38 O          -8.4630   17.3800   19.5670 O.3     1  UNL1       -0.4714
     39 C          -7.1480   17.4500   19.0680 C.3     1  UNL1        0.2525
     40 O         -12.9540   12.7840   34.1190 O.3     1  UNL1       -0.3507
     41 C         -13.8700   11.9270   33.4340 C.3     1  UNL1        0.1741
     42 C          -9.8630   16.8050   34.3810 C.3     1  UNL1        0.1485
@<TRIPOS>BOND
     1     2     1   ar
     2     3     2   ar
     3     4     3   ar
     4     5     4   ar
     5     6     5   ar
     6     6     1   ar
     7     7     4    1
     8     8     7    2
     9     9     7    2
    10     7    10    1
    11    11    10    1
    12    12    11    1
    13    12    13    1
    14    14    12    1
    15    15    10    1
    16    16    15    1
    17    16    17    1
    18    18    16    1
    19    19    18    1
    20    20    19   am
    21    21    20    2
    22    22    20    1
    23    23    22    1
    24    24    23    1
    25    26    25    1
    26    27    26    1
    27    28    27    1
    28    29    28    1
    29    30    29    1
    30    30    26    1
    31    30    23    1
    32    18    31    1
    33    33    32   ar
    34    34    33   ar
    35    35    34   ar
    36    36    35   ar
    37    37    36   ar
    38    37    32   ar
    39    37    31    1
    40    38     1    1
    41    39    38    1
    42    29    40    1
    43    41    40    1
    44    42    25    1
    45    42    24    1
