@<TRIPOS>MOLECULE
6DIF_TPV_B201
 42 45 0 0 0
SMALL
GASTEIGER

@<TRIPOS>ATOM
      1 O          -8.0100   15.8340   26.7750 O.3     1  UNL1       -0.4524
      2 C          -8.7630   15.3230   27.7650 C.2     1  UNL1        0.3401
      3 C          -9.8160   16.0340   28.3840 C.2     1  UNL1        0.0918
      4 C          -9.9490   17.3440   27.9310 C.2     1  UNL1        0.1791
      5 C          -9.0650   17.9680   27.0270 C.3     1  UNL1        0.1090
      6 C          -8.3730   17.0150   26.0660 C.3     1  UNL1        0.1438
      7 O          -8.4140   14.1550   28.0850 O.2     1  UNL1       -0.2451
      8 O         -10.9430   18.1270   28.4610 O.2     1  UNL1       -0.2913
      9 C          -9.4430   16.6990   24.9950 C.3     1  UNL1        0.0406
     10 C          -9.0000   15.8170   23.8400 C.3     1  UNL1        0.0036
     11 C         -10.2110   15.6040   22.8890 C.3     1  UNL1        0.0001
     12 C          -7.1020   17.5610   25.4290 C.3     1  UNL1        0.0452
     13 C          -5.9540   17.8990   26.3610 C.3     1  UNL1        0.0299
     14 C          -4.8540   18.4500   25.6930 C.ar    1  UNL1       -0.0221
     15 C          -3.7500   17.6490   25.4190 C.ar    1  UNL1       -0.0043
     16 C          -2.6620   18.1350   24.7360 C.ar    1  UNL1       -0.0003
     17 C          -2.6690   19.4720   24.3220 C.ar    1  UNL1       -0.0000
     18 C          -3.7560   20.3000   24.6010 C.ar    1  UNL1       -0.0003
     19 C          -4.8530   19.7940   25.2850 C.ar    1  UNL1       -0.0043
     20 C         -10.5560   15.4080   29.4460 C.3     1  UNL1        0.0538
     21 C         -12.0580   15.5960   29.3720 C.3     1  UNL1        0.0090
     22 C         -12.7190   15.1630   28.0710 C.3     1  UNL1        0.0007
     23 C         -10.1170   15.6190   30.7500 C.ar    1  UNL1       -0.0168
     24 C          -9.3270   16.7080   31.0880 C.ar    1  UNL1       -0.0039
     25 C          -8.8800   16.9320   32.4090 C.ar    1  UNL1        0.0011
     26 C          -9.1940   16.0720   33.4480 C.ar    1  UNL1        0.0180
     27 C          -9.9960   14.9570   33.1550 C.ar    1  UNL1        0.0908
     28 N         -10.2870   14.0590   34.1710 N.pl3   1  UNL1       -0.0952
     29 C         -10.4220   14.7780   31.8550 C.ar    1  UNL1        0.0141
     30 S         -11.5680   14.3610   35.1010 S.O2    1  UNL1        0.1095
     31 O         -11.5890   13.2930   36.1650 O.2     1  UNL1       -0.1468
     32 O         -11.4780   15.7920   35.6310 O.2     1  UNL1       -0.1468
     33 C         -13.0070   14.1900   34.0510 C.ar    1  UNL1        0.2078
     34 N         -13.5710   15.2720   33.4820 N.ar    1  UNL1       -0.2242
     35 C         -14.5420   15.1230   32.4930 C.ar    1  UNL1        0.1043
     36 C         -14.9600   13.8410   32.0930 C.ar    1  UNL1        0.0906
     37 C         -14.3920   12.7560   32.7460 C.ar    1  UNL1        0.0084
     38 C         -13.4190   12.9120   33.7390 C.ar    1  UNL1        0.0398
     39 C         -15.9020   13.6460   31.1060 C.3     1  UNL1        0.4200
     40 F         -16.8220   14.6160   31.0150 F       1  UNL1       -0.1658
     41 F         -16.5630   12.5160   31.0210 F       1  UNL1       -0.1658
     42 F         -15.3040   13.7110   29.8870 F       1  UNL1       -0.1658
@<TRIPOS>BOND
     1     2     1    1
     2     3     2    1
     3     4     3    2
     4     5     4    1
     5     6     1    1
     6     6     5    1
     7     7     2    2
     8     8     4    1
     9     6     9    1
    10    10     9    1
    11    11    10    1
    12    12     6    1
    13    13    12    1
    14    14    13    1
    15    15    14   ar
    16    16    15   ar
    17    17    16   ar
    18    18    17   ar
    19    19    18   ar
    20    19    14   ar
    21    20     3    1
    22    20    21    1
    23    22    21    1
    24    23    20    1
    25    24    23   ar
    26    25    24   ar
    27    26    25   ar
    28    27    26   ar
    29    28    27    1
    30    29    23   ar
    31    29    27   ar
    32    30    28    1
    33    31    30    2
    34    32    30    2
    35    33    30    1
    36    34    33   ar
    37    35    34   ar
    38    36    35   ar
    39    37    36   ar
    40    38    37   ar
    41    38    33   ar
    42    39    36    1
    43    39    40    1
    44    41    39    1
    45    42    39    1
