@<TRIPOS>MOLECULE
6DJ1_AB1_B201
 46 49 0 0 0
SMALL
GASTEIGER

@<TRIPOS>ATOM
      1 C          -4.7120   17.5690   20.8960 C.3     1  UNL1        0.1185
      2 C          -6.1350   16.1470   22.3600 C.3     1  UNL1        0.0973
      3 N          -7.0130   17.3240   22.5660 N.am    1  UNL1       -0.2560
      4 C          -6.6900   18.5310   22.1130 C.2     1  UNL1        0.3235
      5 N          -5.5310   18.6700   21.3630 N.am    1  UNL1       -0.1884
      6 C         -12.1910   14.9110   28.2190 C.ar    1  UNL1       -0.0204
      7 C         -13.1280   14.7020   29.2000 C.ar    1  UNL1       -0.0042
      8 C         -13.4820   13.4330   29.6660 C.ar    1  UNL1       -0.0003
      9 C         -12.8660   12.2930   29.1390 C.ar    1  UNL1       -0.0000
     10 C         -11.9190   12.4880   28.1500 C.ar    1  UNL1       -0.0003
     11 C         -11.6440   13.7600   27.6400 C.ar    1  UNL1       -0.0042
     12 O          -7.3930   19.5530   22.3270 O.2     1  UNL1       -0.2508
     13 C          -8.2730   17.1810   23.3390 C.3     1  UNL1        0.1547
     14 C          -7.9400   16.9920   24.8010 C.2     1  UNL1        0.2595
     15 N          -8.0810   18.0650   25.6020 N.am    1  UNL1       -0.2054
     16 C          -7.6900   18.0880   27.0170 C.3     1  UNL1        0.1023
     17 C          -9.1530   16.0670   22.7890 C.3     1  UNL1        0.0272
     18 C         -10.4180   15.9770   23.6550 C.3     1  UNL1        0.0022
     19 C          -9.5540   16.3690   21.3420 C.3     1  UNL1        0.0022
     20 O          -7.5360   15.8740   25.1560 O.2     1  UNL1       -0.2716
     21 C          -3.3110   17.0520   26.5900 C.ar    1  UNL1       -0.0003
     22 C          -2.9380   17.5160   25.3370 C.ar    1  UNL1       -0.0000
     23 C          -3.7300   18.4580   24.6960 C.ar    1  UNL1       -0.0003
     24 C          -4.8820   18.9270   25.3450 C.ar    1  UNL1       -0.0042
     25 C          -5.2940   18.4450   26.5730 C.ar    1  UNL1       -0.0205
     26 C          -4.4620   17.5210   27.2140 C.ar    1  UNL1       -0.0042
     27 C          -6.4170   18.9260   27.2180 C.3     1  UNL1        0.0481
     28 C          -8.8440   18.7120   27.8010 C.3     1  UNL1        0.0567
     29 C         -10.2290   18.1110   27.5360 C.3     1  UNL1        0.1738
     30 C         -10.4870   16.7010   28.0550 C.3     1  UNL1        0.1300
     31 N         -10.3290   16.6180   29.5210 N.am    1  UNL1       -0.2011
     32 C          -9.3620   15.8840   30.1010 C.2     1  UNL1        0.2859
     33 C          -9.4720   15.7290   31.6180 C.3     1  UNL1        0.2911
     34 O         -10.4050   16.6680   32.1940 O.3     1  UNL1       -0.4662
     35 C         -10.5820   16.3970   33.4950 C.ar    1  UNL1        0.1312
     36 O         -11.2660   18.9750   28.0880 O.3     1  UNL1       -0.2212
     37 C         -11.8950   16.1920   27.7160 C.3     1  UNL1        0.0506
     38 O          -8.4510   15.3500   29.4760 O.2     1  UNL1       -0.2693
     39 C          -9.7100   16.9010   34.4490 C.ar    1  UNL1        0.0118
     40 C          -9.9590   16.5740   35.7760 C.ar    1  UNL1       -0.0013
     41 C         -11.0150   15.7300   36.1530 C.ar    1  UNL1       -0.0004
     42 C         -11.8890   15.2560   35.1670 C.ar    1  UNL1       -0.0013
     43 C         -11.7000   15.6670   33.8360 C.ar    1  UNL1        0.0118
     44 C         -12.5090   15.1650   32.8030 C.3     1  UNL1        0.0342
     45 C          -8.5770   17.6860   34.1460 C.3     1  UNL1        0.0342
     46 C          -5.4490   16.2390   21.0210 C.3     1  UNL1        0.0450
@<TRIPOS>BOND
     1     3     2    1
     2     4     3   am
     3     5     4   am
     4     5     1    1
     5     7     6   ar
     6     8     7   ar
     7     9     8   ar
     8    10     9   ar
     9    11    10   ar
    10    11     6   ar
    11    12     4    2
    12    13     3    1
    13    14    13    1
    14    15    14   am
    15    16    15    1
    16    17    13    1
    17    17    18    1
    18    19    17    1
    19    20    14    2
    20    22    21   ar
    21    23    22   ar
    22    24    23   ar
    23    25    24   ar
    24    26    25   ar
    25    26    21   ar
    26    16    27    1
    27    27    25    1
    28    28    16    1
    29    29    28    1
    30    30    29    1
    31    31    30    1
    32    32    31   am
    33    33    32    1
    34    34    33    1
    35    35    34    1
    36    29    36    1
    37    37     6    1
    38    30    37    1
    39    38    32    2
    40    39    35   ar
    41    40    39   ar
    42    41    40   ar
    43    42    41   ar
    44    43    42   ar
    45    43    35   ar
    46    44    43    1
    47    45    39    1
    48    46     2    1
    49    46     1    1
