@<TRIPOS>MOLECULE
6DJ1_AB1_B201
 46 49 0 0 0
SMALL
GASTEIGER

@<TRIPOS>ATOM
      1 C          -4.7290   17.5380   20.9880 C.3     1  UNL1        0.1185
      2 C          -6.1600   16.1260   22.4540 C.3     1  UNL1        0.0973
      3 N          -7.0410   17.3030   22.6450 N.am    1  UNL1       -0.2560
      4 C          -6.7160   18.5070   22.1840 C.2     1  UNL1        0.3235
      5 N          -5.5530   18.6410   21.4400 N.am    1  UNL1       -0.1884
      6 C         -12.2530   14.9300   28.2840 C.ar    1  UNL1       -0.0204
      7 C         -13.1960   14.7280   29.2610 C.ar    1  UNL1       -0.0042
      8 C         -13.5520   13.4620   29.7340 C.ar    1  UNL1       -0.0003
      9 C         -12.9310   12.3190   29.2200 C.ar    1  UNL1       -0.0000
     10 C         -11.9780   12.5060   28.2360 C.ar    1  UNL1       -0.0003
     11 C         -11.7010   13.7740   27.7180 C.ar    1  UNL1       -0.0042
     12 O          -7.4220   19.5300   22.3860 O.2     1  UNL1       -0.2508
     13 C          -8.3060   17.1650   23.4110 C.3     1  UNL1        0.1547
     14 C          -7.9820   16.9880   24.8770 C.2     1  UNL1        0.2595
     15 N          -8.1290   18.0680   25.6680 N.am    1  UNL1       -0.2054
     16 C          -7.7470   18.1020   27.0850 C.3     1  UNL1        0.1023
     17 C          -9.1810   16.0460   22.8640 C.3     1  UNL1        0.0272
     18 C         -10.4520   15.9620   23.7230 C.3     1  UNL1        0.0022
     19 C          -9.5730   16.3360   21.4120 C.3     1  UNL1        0.0022
     20 O          -7.5790   15.8740   25.2430 O.2     1  UNL1       -0.2716
     21 C          -3.3640   17.0680   26.6950 C.ar    1  UNL1       -0.0003
     22 C          -2.9840   17.5220   25.4400 C.ar    1  UNL1       -0.0000
     23 C          -3.7730   18.4570   24.7870 C.ar    1  UNL1       -0.0003
     24 C          -4.9290   18.9310   25.4240 C.ar    1  UNL1       -0.0042
     25 C          -5.3490   18.4580   26.6530 C.ar    1  UNL1       -0.0205
     26 C          -4.5200   17.5400   27.3070 C.ar    1  UNL1       -0.0042
     27 C          -6.4760   18.9430   27.2880 C.3     1  UNL1        0.0481
     28 C          -8.9070   18.7310   27.8570 C.3     1  UNL1        0.0567
     29 C         -10.2890   18.1270   27.5880 C.3     1  UNL1        0.1738
     30 C         -10.5490   16.7200   28.1160 C.3     1  UNL1        0.1300
     31 N         -10.4000   16.6490   29.5840 N.am    1  UNL1       -0.2011
     32 C          -9.4360   15.9210   30.1760 C.2     1  UNL1        0.2859
     33 C          -9.5560   15.7780   31.6940 C.3     1  UNL1        0.2911
     34 O         -10.4940   16.7200   32.2560 O.3     1  UNL1       -0.4662
     35 C         -10.6790   16.4600   33.5580 C.ar    1  UNL1        0.1312
     36 O         -11.3310   18.9940   28.1270 O.3     1  UNL1       -0.2212
     37 C         -11.9540   16.2070   27.7720 C.3     1  UNL1        0.0506
     38 O          -8.5210   15.3830   29.5610 O.2     1  UNL1       -0.2693
     39 C          -9.8130   16.9720   34.5140 C.ar    1  UNL1        0.0118
     40 C         -10.0700   16.6550   35.8420 C.ar    1  UNL1       -0.0013
     41 C         -11.1280   15.8130   36.2180 C.ar    1  UNL1       -0.0004
     42 C         -11.9960   15.3310   35.2310 C.ar    1  UNL1       -0.0013
     43 C         -11.7980   15.7320   33.8980 C.ar    1  UNL1        0.0118
     44 C         -12.6000   15.2200   32.8640 C.3     1  UNL1        0.0342
     45 C          -8.6790   17.7560   34.2110 C.3     1  UNL1        0.0342
     46 C          -5.4660   16.2070   21.1190 C.3     1  UNL1        0.0450
@<TRIPOS>BOND
     1     3     2    1
     2     4     3   am
     3     5     4   am
     4     5     1    1
     5     7     6   ar
     6     8     7   ar
     7     9     8   ar
     8    10     9   ar
     9    11    10   ar
    10    11     6   ar
    11    12     4    2
    12    13     3    1
    13    14    13    1
    14    15    14   am
    15    16    15    1
    16    17    13    1
    17    17    18    1
    18    19    17    1
    19    20    14    2
    20    22    21   ar
    21    23    22   ar
    22    24    23   ar
    23    25    24   ar
    24    26    25   ar
    25    26    21   ar
    26    16    27    1
    27    27    25    1
    28    28    16    1
    29    29    28    1
    30    30    29    1
    31    31    30    1
    32    32    31   am
    33    33    32    1
    34    34    33    1
    35    35    34    1
    36    29    36    1
    37    37     6    1
    38    30    37    1
    39    38    32    2
    40    39    35   ar
    41    40    39   ar
    42    41    40   ar
    43    42    41   ar
    44    43    42   ar
    45    43    35   ar
    46    44    43    1
    47    45    39    1
    48    46     2    1
    49    46     1    1
