@<TRIPOS>MOLECULE
6E9A_J0S_B201
 40 43 0 0 0
SMALL
GASTEIGER

@<TRIPOS>ATOM
      1 O          -8.3150   17.5680   19.5880 O.3     1  UNL1       -0.4714
      2 C          -7.0200   17.6490   19.0180 C.3     1  UNL1        0.2525
      3 C          -8.3260   17.0350   20.8400 C.ar    1  UNL1        0.1388
      4 C          -9.5740   17.0540   21.4840 C.ar    1  UNL1        0.0383
      5 C          -9.6800   16.6730   22.8220 C.ar    1  UNL1        0.0230
      6 C          -8.5580   16.2630   23.5350 C.ar    1  UNL1        0.1224
      7 C          -7.3390   16.2320   22.8820 C.ar    1  UNL1        0.0230
      8 C          -7.2070   16.5880   21.5250 C.ar    1  UNL1        0.0383
      9 S          -8.7120   15.8770   25.2400 S.O2    1  UNL1        0.0634
     10 O         -10.0200   15.2250   25.4800 O.2     1  UNL1       -0.1528
     11 O          -7.4890   15.1460   25.6410 O.2     1  UNL1       -0.1528
     12 N          -8.7050   17.2980   26.0660 N.3     1  UNL1       -0.1529
     13 C          -7.5280   18.1340   25.8790 C.3     1  UNL1        0.0958
     14 C          -6.9430   18.7300   27.1750 C.3     1  UNL1        0.0178
     15 C          -6.4140   17.6570   28.1170 C.3     1  UNL1        0.0015
     16 C          -5.8460   19.7520   26.7990 C.3     1  UNL1        0.0015
     17 C          -9.9700   17.9260   26.3370 C.3     1  UNL1        0.1304
     18 C         -10.2540   17.9460   27.8490 C.3     1  UNL1        0.1898
     19 O         -11.2990   18.9030   28.0790 O.3     1  UNL1       -0.2197
     20 C         -10.6580   16.5740   28.3930 C.3     1  UNL1        0.1347
     21 N         -10.6500   16.6400   29.8850 N.am    1  UNL1       -0.1675
     22 C          -9.6580   16.1880   30.6420 C.2     1  UNL1        0.4210
     23 O          -8.6380   15.6430   30.2340 O.2     1  UNL1       -0.2246
     24 O          -9.8460   16.3660   31.9890 O.3     1  UNL1       -0.4371
     25 C          -8.8240   15.7640   32.7930 C.3     1  UNL1        0.1760
     26 C          -9.0640   16.2670   34.2110 C.3     1  UNL1        0.0892
     27 C         -10.1620   15.3710   34.7790 C.3     1  UNL1        0.1941
     28 O         -11.4150   16.0180   34.5840 O.3     1  UNL1       -0.4354
     29 C         -12.1830   15.3720   33.6940 C.2     1  UNL1        0.4211
     30 O         -13.3230   15.8130   33.3840 O.2     1  UNL1       -0.2246
     31 N         -11.5400   14.2760   33.3100 N.am    1  UNL1       -0.1667
     32 C         -10.2200   14.1430   33.8860 C.3     1  UNL1        0.1423
     33 C          -9.0840   14.2830   32.8940 C.3     1  UNL1        0.0693
     34 C         -12.0520   16.1150   27.9190 C.3     1  UNL1        0.0508
     35 C         -13.1380   14.5200   29.6370 C.ar    1  UNL1       -0.0042
     36 C         -13.3480   13.2470   30.1590 C.ar    1  UNL1       -0.0003
     37 C         -12.8240   12.1310   29.5110 C.ar    1  UNL1       -0.0000
     38 C         -12.0690   12.2750   28.3430 C.ar    1  UNL1       -0.0003
     39 C         -11.8340   13.5640   27.8440 C.ar    1  UNL1       -0.0042
     40 C         -12.3620   14.7030   28.4830 C.ar    1  UNL1       -0.0204
@<TRIPOS>BOND
     1     2     1    1
     2     3     1    1
     3     4     3   ar
     4     5     4   ar
     5     6     5   ar
     6     7     6   ar
     7     8     7   ar
     8     8     3   ar
     9     9     6    1
    10    10     9    2
    11    11     9    2
    12     9    12    1
    13    13    12    1
    14    14    13    1
    15    14    15    1
    16    16    14    1
    17    17    12    1
    18    18    17    1
    19    18    19    1
    20    20    18    1
    21    21    20    1
    22    22    21   am
    23    23    22    2
    24    24    22    1
    25    25    24    1
    26    26    25    1
    27    27    26    1
    28    28    27    1
    29    29    28    1
    30    30    29    2
    31    31    29   am
    32    32    31    1
    33    32    27    1
    34    32    33    1
    35    33    25    1
    36    20    34    1
    37    36    35   ar
    38    37    36   ar
    39    38    37   ar
    40    39    38   ar
    41    40    39   ar
    42    40    35   ar
    43    40    34    1
