@<TRIPOS>MOLECULE
2R3L_SCW_A501
 24 27 0 0 0
SMALL
GASTEIGER

@<TRIPOS>ATOM
      1 C           9.1300  -21.4790  -22.5720 C.ar    1  UNL1        0.1195
      2 N           7.9170  -22.0680  -22.6370 N.ar    1  UNL1       -0.2825
      3 C           8.0240  -23.1160  -23.4990 C.ar    1  UNL1        0.1631
      4 N           9.2870  -23.2280  -24.0050 N.ar    1  UNL1       -0.2230
      5 C           9.9780  -22.2100  -23.4120 C.ar    1  UNL1        0.1250
      6 C           6.7210  -21.7390  -21.9990 C.ar    1  UNL1        0.0819
      7 C           5.5970  -22.4880  -22.2360 C.ar    1  UNL1        0.0190
      8 C           5.6720  -23.5920  -23.1310 C.ar    1  UNL1        0.0207
      9 C           6.8670  -23.9350  -23.7740 C.ar    1  UNL1        0.1001
     10 N           7.0520  -25.0040  -24.6050 N.pl3   1  UNL1       -0.2297
     11 C           4.3370  -22.1890  -21.5050 C.ar    1  UNL1        0.0015
     12 C           6.0340  -26.0740  -24.6010 C.3     1  UNL1        0.1417
     13 C           5.2050  -25.9740  -25.8460 C.ar    1  UNL1        0.0377
     14 C           3.8040  -25.8500  -25.8120 C.ar    1  UNL1        0.0996
     15 N           3.0620  -25.7530  -26.9340 N.ar    1  UNL1       -0.2227
     16 C           3.7510  -25.8180  -28.0950 C.ar    1  UNL1        0.1989
     17 N           5.0760  -25.9430  -28.2480 N.ar    1  UNL1       -0.2227
     18 C           5.7900  -26.0180  -27.1190 C.ar    1  UNL1        0.0996
     19 C           4.3790  -21.7570  -20.1710 C.ar    1  UNL1        0.0000
     20 C           3.1930  -21.4900  -19.4690 C.ar    1  UNL1        0.0000
     21 C           1.9580  -21.6830  -20.0820 C.ar    1  UNL1        0.0000
     22 C           1.9000  -22.1440  -21.4050 C.ar    1  UNL1        0.0000
     23 C           3.0820  -22.3950  -22.1120 C.ar    1  UNL1        0.0000
     24 BR          9.5630  -19.9890  -21.5600 Br      1  UNL1       -0.0279
@<TRIPOS>BOND
     1     2     1   ar
     2     3     2   ar
     3     4     3   ar
     4     5     4   ar
     5     5     1   ar
     6     6     2   ar
     7     7     6   ar
     8     8     7   ar
     9     9     8   ar
    10     9     3   ar
    11    10     9    1
    12    11     7    1
    13    12    10    1
    14    13    12    1
    15    14    13   ar
    16    15    14   ar
    17    16    15   ar
    18    17    16   ar
    19    18    17   ar
    20    18    13   ar
    21    19    11   ar
    22    20    19   ar
    23    21    20   ar
    24    22    21   ar
    25    23    22   ar
    26    23    11   ar
    27    24     1    1
