@<TRIPOS>MOLECULE
2R3M_SCX_A501
 28 31 0 0 0
SMALL
GASTEIGER

@<TRIPOS>ATOM
      1 C           9.2040  -21.0120  -22.4400 C.ar    1  UNL1        0.0345
      2 C           7.9610  -21.6150  -22.3900 C.ar    1  UNL1        0.1626
      3 N           8.0280  -22.7310  -23.2180 N.ar    1  UNL1       -0.1975
      4 N           9.2730  -22.8670  -23.8000 N.ar    1  UNL1       -0.1613
      5 C           9.9700  -21.8380  -23.3120 C.ar    1  UNL1        0.1193
      6 N           6.8220  -21.2890  -21.6890 N.ar    1  UNL1       -0.2265
      7 C           5.8010  -22.0660  -21.8440 C.ar    1  UNL1        0.0901
      8 C           5.7770  -23.2830  -22.7080 C.ar    1  UNL1        0.0551
      9 C           6.9220  -23.6080  -23.3530 C.ar    1  UNL1        0.1524
     10 N           7.1080  -24.7360  -24.1390 N.pl3   1  UNL1       -0.2152
     11 C           4.5560  -21.7750  -21.0960 C.ar    1  UNL1        0.0727
     12 C           6.3300  -25.9570  -24.1960 C.3     1  UNL1        0.1432
     13 C           5.3280  -25.8950  -25.2880 C.ar    1  UNL1        0.0378
     14 C           3.9790  -25.9220  -25.0320 C.ar    1  UNL1        0.1009
     15 N           3.0360  -25.8350  -25.9890 N.ar    1  UNL1       -0.2098
     16 C           3.4780  -25.6960  -27.2520 C.ar    1  UNL1        0.2566
     17 N           4.7690  -25.6530  -27.6170 N.ar    1  UNL1       -0.2098
     18 C           5.6670  -25.7350  -26.6270 C.ar    1  UNL1        0.1009
     19 C           4.5640  -21.8840  -19.7080 C.ar    1  UNL1        0.1437
     20 C           3.4260  -21.6030  -18.9470 C.ar    1  UNL1        0.0298
     21 C           2.2380  -21.2330  -19.5810 C.ar    1  UNL1        0.0046
     22 C           2.2070  -21.1310  -20.9710 C.ar    1  UNL1        0.0298
     23 C           3.3670  -21.3960  -21.7190 C.ar    1  UNL1        0.1437
     24 C           9.6350  -19.7860  -21.7230 C.3     1  UNL1        0.0311
     25 N           2.5480  -25.5870  -28.2310 N.pl3   1  UNL1       -0.0860
     26 C           8.7480  -18.5940  -22.0310 C.3     1  UNL1        0.0052
     27 F           5.6650  -22.2330  -19.0600 F       1  UNL1       -0.2040
     28 F           3.2920  -21.2750  -23.0550 F       1  UNL1       -0.2040
@<TRIPOS>BOND
     1     2     1   ar
     2     3     2   ar
     3     4     3   ar
     4     5     4   ar
     5     5     1   ar
     6     6     2   ar
     7     7     6   ar
     8     8     7   ar
     9     9     8   ar
    10     9     3   ar
    11    10     9    1
    12    11     7    1
    13    12    10    1
    14    13    12    1
    15    14    13   ar
    16    15    14   ar
    17    16    15   ar
    18    17    16   ar
    19    18    17   ar
    20    18    13   ar
    21    19    11   ar
    22    20    19   ar
    23    21    20   ar
    24    22    21   ar
    25    23    22   ar
    26    23    11   ar
    27    24     1    1
    28    25    16    1
    29    26    24    1
    30    27    19    1
    31    28    23    1
