@<TRIPOS>MOLECULE
2R3N_SCZ_A501
 26 30 0 0 0
SMALL
GASTEIGER

@<TRIPOS>ATOM
      1 C           8.6100  -21.4770  -22.7890 C.ar    1  UNL1        0.0342
      2 C           7.3920  -22.1340  -22.9050 C.ar    1  UNL1        0.1626
      3 N           7.6320  -23.2040  -23.7750 N.ar    1  UNL1       -0.1975
      4 N           8.9420  -23.2230  -24.2210 N.ar    1  UNL1       -0.1613
      5 C           9.5120  -22.1920  -23.5960 C.ar    1  UNL1        0.1193
      6 N           6.1430  -21.9190  -22.3910 N.ar    1  UNL1       -0.2267
      7 C           5.1890  -22.7860  -22.7460 C.ar    1  UNL1        0.0858
      8 C           5.3610  -23.9180  -23.6560 C.ar    1  UNL1        0.0550
      9 C           6.6080  -24.1100  -24.1380 C.ar    1  UNL1        0.1524
     10 N           6.9640  -25.1150  -24.9750 N.pl3   1  UNL1       -0.2153
     11 C           3.8120  -22.6000  -22.2180 C.ar    1  UNL1        0.0178
     12 C           6.2420  -26.3280  -25.3130 C.3     1  UNL1        0.1417
     13 C           5.3050  -26.1460  -26.4760 C.ar    1  UNL1        0.0186
     14 C           5.8030  -25.9340  -27.7470 C.ar    1  UNL1        0.0963
     15 N           5.0230  -25.8010  -28.8570 N.ar    1  UNL1       -0.2426
     16 C           3.6890  -25.8730  -28.6720 C.ar    1  UNL1        0.0989
     17 C           3.0910  -26.0560  -27.4360 C.ar    1  UNL1        0.0204
     18 C           3.9140  -26.1910  -26.3200 C.ar    1  UNL1        0.0006
     19 C           3.4740  -21.3750  -21.6590 C.ar    1  UNL1        0.0015
     20 C           2.1910  -21.1490  -21.1510 C.ar    1  UNL1        0.0000
     21 C           1.2490  -22.1730  -21.1630 C.ar    1  UNL1        0.0000
     22 C           1.5820  -23.4170  -21.7210 C.ar    1  UNL1        0.0000
     23 C           2.8650  -23.6320  -22.2520 C.ar    1  UNL1        0.0015
     24 C           8.9800  -20.2350  -22.0130 C.3     1  UNL1        0.0270
     25 C           7.9200  -19.2710  -21.5780 C.3     1  UNL1        0.0048
     26 C           8.6550  -20.1060  -20.5490 C.3     1  UNL1        0.0048
@<TRIPOS>BOND
     1     2     1   ar
     2     3     2   ar
     3     4     3   ar
     4     5     4   ar
     5     5     1   ar
     6     6     2   ar
     7     7     6   ar
     8     8     7   ar
     9     9     8   ar
    10     9     3   ar
    11    10     9    1
    12    11     7    1
    13    12    10    1
    14    13    12    1
    15    14    13   ar
    16    15    14   ar
    17    16    15   ar
    18    17    16   ar
    19    18    17   ar
    20    18    13   ar
    21    19    11   ar
    22    20    19   ar
    23    21    20   ar
    24    22    21   ar
    25    23    11   ar
    26    23    22   ar
    27    24     1    1
    28    25    24    1
    29    26    24    1
    30    26    25    1
