@<TRIPOS>MOLECULE
2R3R_6SC_A501
 24 27 0 0 0
SMALL
GASTEIGER

@<TRIPOS>ATOM
      1 C           8.8270  -21.5300  -22.6540 C.ar    1  UNL1        0.0912
      2 C           7.5330  -22.0860  -22.8300 C.ar    1  UNL1        0.1729
      3 N           7.7430  -23.1580  -23.7400 N.ar    1  UNL1       -0.1966
      4 N           9.0240  -23.2520  -24.1480 N.ar    1  UNL1       -0.1604
      5 C           9.6960  -22.3430  -23.4880 C.ar    1  UNL1        0.1303
      6 N           6.2880  -21.8010  -22.2870 N.ar    1  UNL1       -0.2259
      7 C           5.2850  -22.6320  -22.6440 C.ar    1  UNL1        0.0858
      8 C           5.4480  -23.7380  -23.5240 C.ar    1  UNL1        0.0550
      9 C           6.7160  -24.0230  -24.0510 C.ar    1  UNL1        0.1524
     10 N           6.9740  -25.0560  -24.8990 N.pl3   1  UNL1       -0.2153
     11 C           3.9110  -22.3690  -22.1430 C.ar    1  UNL1        0.0178
     12 C           5.9730  -26.0830  -25.0350 C.3     1  UNL1        0.1403
     13 C           5.1950  -25.9650  -26.2840 C.ar    1  UNL1        0.0025
     14 C           5.8450  -25.9120  -27.4940 C.ar    1  UNL1        0.0181
     15 C           5.0880  -25.8360  -28.6750 C.ar    1  UNL1        0.0986
     16 N           3.7410  -25.7640  -28.6810 N.ar    1  UNL1       -0.2423
     17 C           3.1260  -25.7980  -27.4930 C.ar    1  UNL1        0.0986
     18 C           3.8010  -25.9110  -26.2650 C.ar    1  UNL1        0.0181
     19 C           3.5660  -21.0970  -21.6900 C.ar    1  UNL1        0.0015
     20 C           2.2810  -20.8530  -21.1980 C.ar    1  UNL1        0.0000
     21 C           1.3190  -21.8500  -21.2150 C.ar    1  UNL1        0.0000
     22 C           1.6410  -23.1350  -21.6880 C.ar    1  UNL1        0.0000
     23 C           2.9410  -23.3960  -22.1600 C.ar    1  UNL1        0.0015
     24 BR          9.3300  -20.0960  -21.6560 Br      1  UNL1       -0.0441
@<TRIPOS>BOND
     1     2     1   ar
     2     3     2   ar
     3     4     3   ar
     4     5     4   ar
     5     5     1   ar
     6     6     2   ar
     7     7     6   ar
     8     8     7   ar
     9     9     8   ar
    10     9     3   ar
    11    10     9    1
    12    11     7    1
    13    12    10    1
    14    13    12    1
    15    14    13   ar
    16    15    14   ar
    17    16    15   ar
    18    17    16   ar
    19    18    17   ar
    20    18    13   ar
    21    19    11   ar
    22    20    19   ar
    23    21    20   ar
    24    22    21   ar
    25    23    11   ar
    26    23    22   ar
    27    24     1    1
