@<TRIPOS>MOLECULE
2VTT_LZD_A1299
 25 27 0 0 0
SMALL
GASTEIGER

@<TRIPOS>ATOM
      1 C           4.1850  -27.6550  -25.8600 C.3     1  UNL1        0.0888
      2 C           4.6600  -26.7810  -27.0160 C.3     1  UNL1        0.0206
      3 C           5.9600  -26.0670  -26.6650 C.3     1  UNL1        0.0246
      4 C           5.7950  -25.2630  -25.3760 C.3     1  UNL1        0.1130
      5 N           7.0390  -24.5850  -24.9990 N.am    1  UNL1       -0.2006
      6 C           7.0130  -23.4500  -24.2640 C.2     1  UNL1        0.2856
      7 O           5.9660  -22.9470  -23.8630 O.2     1  UNL1       -0.2666
      8 C           8.3160  -22.8430  -23.9260 C.ar    1  UNL1        0.1744
      9 N           9.4820  -23.1870  -24.5380 N.ar    1  UNL1       -0.1418
     10 N          10.4370  -22.4230  -23.9440 N.ar    1  UNL1       -0.1448
     11 C           9.9090  -21.6060  -23.0030 C.ar    1  UNL1        0.1404
     12 C           8.5420  -21.8660  -22.9640 C.ar    1  UNL1        0.1184
     13 N           7.5410  -21.3330  -22.1640 N.am    1  UNL1       -0.1719
     14 C           7.7230  -20.5440  -21.0880 C.2     1  UNL1        0.2735
     15 O           8.8260  -20.0970  -20.7590 O.2     1  UNL1       -0.2679
     16 C           6.4940  -20.2320  -20.2960 C.ar    1  UNL1        0.1101
     17 C           5.7480  -21.2440  -19.6820 C.ar    1  UNL1        0.1467
     18 F           6.1530  -22.5230  -19.8260 F       1  UNL1       -0.2039
     19 C           4.6020  -20.9540  -18.9400 C.ar    1  UNL1        0.0299
     20 C           4.1960  -19.6370  -18.7950 C.ar    1  UNL1        0.0046
     21 C           4.9280  -18.6200  -19.3940 C.ar    1  UNL1        0.0299
     22 C           6.0690  -18.9310  -20.1330 C.ar    1  UNL1        0.1467
     23 F           6.7780  -17.9510  -20.7210 F       1  UNL1       -0.2039
     24 C           5.2900  -26.1690  -24.2380 C.3     1  UNL1        0.1103
     25 N           4.0160  -26.8400  -24.6230 N.3     1  UNL1       -0.2162
@<TRIPOS>BOND
     1     2     1    1
     2     3     2    1
     3     4     3    1
     4     4     5    1
     5     6     5   am
     6     7     6    2
     7     8     6    1
     8     9     8   ar
     9    10     9   ar
    10    11    10   ar
    11    12     8   ar
    12    12    11   ar
    13    13    12    1
    14    14    13   am
    15    15    14    2
    16    16    14    1
    17    17    16   ar
    18    18    17    1
    19    19    17   ar
    20    20    19   ar
    21    21    20   ar
    22    22    21   ar
    23    22    16   ar
    24    23    22    1
    25    24     4    1
    26    25     1    1
    27    25    24    1
