@<TRIPOS>MOLECULE
3QX2_X63_A300
 25 26 0 0 0
SMALL
GASTEIGER

@<TRIPOS>ATOM
      1 N           7.4270  -24.9000  -23.9270 N.pl3   1  UNL1       -0.2325
      2 N          10.0610  -21.8430  -22.9830 N.am    1  UNL1       -0.0837
      3 N           3.3340  -26.2560  -25.9170 N.ar    1  UNL1       -0.2098
      4 N           5.0310  -25.5190  -27.4700 N.ar    1  UNL1       -0.2098
      5 N           3.8310  -22.5180  -21.9140 N.pl3   1  UNL1       -0.2290
      6 N           2.8640  -25.7020  -28.0640 N.pl3   1  UNL1       -0.0860
      7 N           5.4620  -20.3130  -21.6090 N.pl3   1  UNL1        0.0823
      8 C           7.2780  -21.4500  -22.6010 C.ar    1  UNL1        0.0826
      9 C           7.8150  -22.6370  -23.2110 C.ar    1  UNL1        0.0777
     10 C           6.9580  -23.7950  -23.3710 C.ar    1  UNL1        0.0718
     11 C           5.5960  -23.7130  -22.9100 C.ar    1  UNL1        0.0386
     12 C           5.0720  -22.5410  -22.3110 C.ar    1  UNL1        0.1361
     13 C           5.9120  -21.3900  -22.1490 C.ar    1  UNL1        0.3047
     14 C           9.1510  -22.6360  -23.6200 C.2     1  UNL1        0.2856
     15 C           6.6780  -26.1940  -24.0770 C.3     1  UNL1        0.1416
     16 C           5.6470  -26.0760  -25.1800 C.ar    1  UNL1        0.0378
     17 C           4.3010  -26.3690  -24.9630 C.ar    1  UNL1        0.1009
     18 C           3.7510  -25.8270  -27.1460 C.ar    1  UNL1        0.2566
     19 C           5.9580  -25.6500  -26.4770 C.ar    1  UNL1        0.1009
     20 C           3.2090  -23.6720  -21.2130 C.3     1  UNL1        0.1479
     21 C           2.0000  -24.1530  -22.0030 C.3     1  UNL1        0.2053
     22 O           9.5410  -23.3340  -24.5410 O.2     1  UNL1       -0.2666
     23 O           1.0800  -23.0980  -22.1280 O.3     1  UNL1       -0.2184
     24 O           4.3130  -20.2980  -20.9680 O.2     1  UNL1        0.0415
     25 O           6.1450  -19.1900  -21.6850 O.co2   1  UNL1       -0.5760
@<TRIPOS>UNITY_ATOM_ATTR
7 1
charge 1
25 1
charge -1
@<TRIPOS>BOND
     1     9     8   ar
     2    10     9   ar
     3    10     1    1
     4    11    10   ar
     5    12     5    1
     6    12    11   ar
     7    13    12   ar
     8    13     8   ar
     9    13     7    1
    10    14     9    1
    11    14     2   am
    12    15     1    1
    13    16    15    1
    14    17     3   ar
    15    17    16   ar
    16    18     6    1
    17    18     4   ar
    18    18     3   ar
    19    19     4   ar
    20    19    16   ar
    21    20     5    1
    22    21    20    1
    23    22    14    2
    24    23    21    1
    25    24     7    2
    26    25     7    1
