@<TRIPOS>MOLECULE
4EK8_16K_A301
 23 25 0 0 0
SMALL
GASTEIGER

@<TRIPOS>ATOM
      1 S           5.5930  -21.9600  -21.1400 S.2     1  UNL1       -0.0696
      2 C           7.1180  -21.1860  -21.4090 C.ar    1  UNL1        0.0618
      3 N           7.4190  -22.7550  -23.1460 N.ar    1  UNL1       -0.2116
      4 O           2.9880  -22.5970  -23.7950 O.co2   1  UNL1       -0.5760
      5 C           8.0600  -21.8850  -22.2740 C.ar    1  UNL1        0.0929
      6 N           9.6010  -23.3070  -24.1460 N.ar    1  UNL1       -0.2106
      7 O           1.7660  -24.3290  -23.8480 O.2     1  UNL1        0.0415
      8 C           8.2090  -23.4480  -24.0540 C.ar    1  UNL1        0.2409
      9 N           7.7030  -24.4140  -24.9400 N.pl3   1  UNL1       -0.1774
     10 C          10.1810  -22.4270  -23.2730 C.ar    1  UNL1        0.1035
     11 N           2.8130  -23.7640  -24.0780 N.pl3   1  UNL1        0.0810
     12 C           9.4520  -21.6790  -22.3060 C.ar    1  UNL1        0.0405
     13 N           6.1100  -19.7870  -19.8270 N.ar    1  UNL1       -0.2470
     14 C           6.3420  -24.8070  -25.0730 C.ar    1  UNL1        0.0797
     15 C           5.2530  -24.1400  -24.4360 C.ar    1  UNL1        0.0918
     16 C           3.9410  -24.5250  -24.7330 C.ar    1  UNL1        0.2914
     17 C           3.6550  -25.5740  -25.6320 C.ar    1  UNL1        0.0754
     18 C           4.7430  -26.2540  -26.2430 C.ar    1  UNL1        0.0076
     19 C           6.0720  -25.8850  -25.9760 C.ar    1  UNL1        0.0170
     20 C           7.2290  -20.0490  -20.6210 C.ar    1  UNL1        0.0670
     21 C           5.1980  -20.7350  -20.0200 C.ar    1  UNL1        0.0883
     22 C           3.9000  -20.7610  -19.2880 C.3     1  UNL1        0.0594
     23 C           8.3410  -19.0890  -20.4400 C.3     1  UNL1        0.0527
@<TRIPOS>UNITY_ATOM_ATTR
4 1
charge -1
11 1
charge 1
@<TRIPOS>BOND
     1     2     1   ar
     2     5     3   ar
     3     5     2    1
     4     8     6   ar
     5     8     3   ar
     6     9     8    1
     7    10     6   ar
     8    11     7    2
     9    11     4    1
    10    12    10   ar
    11    12     5   ar
    12    14     9    1
    13    15    14   ar
    14    16    15   ar
    15    16    11    1
    16    17    16   ar
    17    18    17   ar
    18    19    18   ar
    19    19    14   ar
    20    20    13   ar
    21    20     2   ar
    22    21     1   ar
    23    21    13   ar
    24    22    21    1
    25    23    20    1
