@<TRIPOS>MOLECULE
4EOJ_ATP_A301
 31 33 0 0 0
SMALL
GASTEIGER

@<TRIPOS>ATOM
      1 P          -0.9390  -19.8090  -17.0550 P.3     1  UNL1        0.5373
      2 O          -1.9140  -19.7980  -18.2080 O.2     1  UNL1       -0.2221
      3 O          -1.2580  -18.8190  -15.9600 O.3     1  UNL1       -0.1143
      4 O          -0.5770  -21.1880  -16.5580 O.3     1  UNL1       -0.1143
      5 P           1.5770  -18.7010  -16.7100 P.3     1  UNL1        0.2277
      6 O           1.8730  -19.8070  -15.7290 O.2     1  UNL1       -0.5168
      7 O           1.1180  -17.3630  -16.1800 O.3     1  UNL1       -0.4368
      8 O           0.4320  -19.2530  -17.6900 O.3     1  UNL1       -0.2258
      9 P           3.8080  -19.5340  -18.3590 P.3     1  UNL1        0.2189
     10 O           3.7280  -20.8150  -17.5730 O.2     1  UNL1       -0.5170
     11 O           5.1590  -18.8910  -18.5670 O.3     1  UNL1       -0.4371
     12 O           2.8490  -18.4260  -17.6750 O.3     1  UNL1       -0.2700
     13 O           3.1710  -19.7880  -19.8210 O.3     1  UNL1       -0.3112
     14 C           2.2490  -20.8550  -20.0500 C.3     1  UNL1        0.1813
     15 C           2.6560  -21.7680  -21.2110 C.3     1  UNL1        0.1801
     16 O           3.5430  -21.1270  -22.1420 O.3     1  UNL1       -0.3306
     17 C           3.3700  -23.0320  -20.7370 C.3     1  UNL1        0.2161
     18 O           2.4720  -24.1200  -20.4620 O.3     1  UNL1       -0.2175
     19 C           4.3090  -23.3670  -21.8800 C.3     1  UNL1        0.2337
     20 O           3.7850  -24.4540  -22.6560 O.3     1  UNL1       -0.2155
     21 C           4.4400  -22.0930  -22.7180 C.3     1  UNL1        0.2409
     22 N           5.8680  -21.6730  -22.6350 N.ar    1  UNL1       -0.2693
     23 C           6.3930  -20.7780  -21.7760 C.ar    1  UNL1        0.1816
     24 N           7.7370  -20.6480  -21.9530 N.ar    1  UNL1       -0.2193
     25 C           8.0960  -21.4790  -22.9450 C.ar    1  UNL1        0.1518
     26 C           9.3610  -21.8490  -23.6320 C.ar    1  UNL1        0.1919
     27 N          10.5310  -21.2740  -23.2740 N.pl3   1  UNL1       -0.1054
     28 N           9.3020  -22.7760  -24.6230 N.ar    1  UNL1       -0.2040
     29 C           8.1400  -23.3450  -24.9760 C.ar    1  UNL1        0.2016
     30 N           6.9580  -23.0620  -24.3900 N.ar    1  UNL1       -0.2048
     31 C           6.8680  -22.1590  -23.3860 C.ar    1  UNL1        0.1692
@<TRIPOS>BOND
     1     2     1    2
     2     3     1    1
     3     4     1    1
     4     6     5    2
     5     7     5    1
     6     8     5    1
     7     8     1    1
     8    10     9    2
     9    11     9    1
    10    12     9    1
    11    12     5    1
    12    13     9    1
    13    14    13    1
    14    15    14    1
    15    16    15    1
    16    17    15    1
    17    17    18    1
    18    19    17    1
    19    19    20    1
    20    21    19    1
    21    21    16    1
    22    21    22    1
    23    23    22   ar
    24    24    23   ar
    25    25    24   ar
    26    26    25   ar
    27    27    26    1
    28    28    26   ar
    29    29    28   ar
    30    30    29   ar
    31    31    30   ar
    32    31    25   ar
    33    31    22   ar
