@<TRIPOS>MOLECULE
4FKJ_11K_A301
 26 29 0 0 0
SMALL
GASTEIGER

@<TRIPOS>ATOM
      1 N          10.0330  -22.3310  -23.5210 N.ar    1  UNL1       -0.1510
      2 N           9.6060  -23.3200  -24.1690 N.ar    1  UNL1       -0.1313
      3 N           7.6170  -24.4920  -24.5150 N.am    1  UNL1       -0.1582
      4 N           0.4590  -25.3270  -31.1610 N.3     1  UNL1       -0.2696
      5 O           5.5920  -24.2060  -23.4730 O.2     1  UNL1       -0.2726
      6 C           5.5640  -25.9560  -27.2990 C.ar    1  UNL1       -0.0007
      7 C           3.6380  -25.7990  -25.8530 C.ar    1  UNL1       -0.0007
      8 C           4.7700  -25.7520  -28.4240 C.ar    1  UNL1        0.0366
      9 C           2.8360  -25.6140  -26.9800 C.ar    1  UNL1        0.0366
     10 C           7.8680  -22.4490  -23.1640 C.ar    1  UNL1        0.0545
     11 C          -0.5490  -25.9160  -33.2160 C.3     1  UNL1        0.0188
     12 C          -0.1720  -27.2100  -32.4810 C.3     1  UNL1        0.0188
     13 C           1.4510  -24.5870  -28.9920 C.3     1  UNL1        0.2226
     14 C           8.5590  -20.3450  -20.6710 C.3     1  UNL1        0.0064
     15 C           8.1660  -19.4490  -21.8500 C.3     1  UNL1        0.0064
     16 C          -0.5300  -24.8370  -32.1310 C.3     1  UNL1        0.0722
     17 C           0.1660  -26.7660  -31.0530 C.3     1  UNL1        0.0722
     18 C           0.1770  -24.7050  -29.8520 C.3     1  UNL1        0.1200
     19 C           5.8760  -26.1770  -24.7930 C.3     1  UNL1        0.1135
     20 O           2.6030  -25.4170  -29.3600 O.3     1  UNL1       -0.4740
     21 C           6.3490  -24.8420  -24.2070 C.2     1  UNL1        0.2514
     22 C           5.0100  -25.9530  -26.0200 C.ar    1  UNL1       -0.0128
     23 C           3.3940  -25.5940  -28.2610 C.ar    1  UNL1        0.1386
     24 C           8.2820  -23.4130  -24.0260 C.ar    1  UNL1        0.1771
     25 C           8.9900  -21.7450  -22.9100 C.ar    1  UNL1        0.0831
     26 C           9.2580  -20.4960  -22.0440 C.3     1  UNL1        0.0422
@<TRIPOS>BOND
     1     2     1   ar
     2     8     6   ar
     3     9     7   ar
     4    12    11    1
     5    15    14    1
     6    16    11    1
     7    16     4    1
     8    17    12    1
     9    17     4    1
    10    18    13    1
    11    18     4    1
    12    20    13    1
    13    21    19    1
    14    21     5    2
    15    21     3   am
    16    22     7   ar
    17    22     6   ar
    18    22    19    1
    19    23    20    1
    20    23     8   ar
    21    23     9   ar
    22    24    10   ar
    23    24     3    1
    24    24     2   ar
    25    25    10   ar
    26    25     1   ar
    27    26    25    1
    28    26    15    1
    29    26    14    1
