@<TRIPOS>MOLECULE
4FKL_CK2_A300
 14 15 0 0 0
SMALL
GASTEIGER

@<TRIPOS>ATOM
      1 C           1.5760  -21.0650  -21.4680 C.3     1  UNL1        0.0594
      2 C           3.0500  -21.3960  -21.5810 C.ar    1  UNL1        0.0883
      3 S           3.9170  -21.6890  -23.0270 S.2     1  UNL1       -0.0696
      4 N           3.8230  -21.4740  -20.5170 N.ar    1  UNL1       -0.2470
      5 C           5.1320  -21.7490  -20.7930 C.ar    1  UNL1        0.0670
      6 C           5.9960  -21.8840  -19.6300 C.3     1  UNL1        0.0527
      7 C           5.4130  -21.8960  -22.1630 C.ar    1  UNL1        0.0618
      8 C           6.6740  -22.1960  -22.7600 C.ar    1  UNL1        0.0930
      9 N           7.8370  -21.7030  -22.2610 N.ar    1  UNL1       -0.2105
     10 C           6.7380  -23.0200  -23.8970 C.ar    1  UNL1        0.0405
     11 C           7.9440  -23.3000  -24.5290 C.ar    1  UNL1        0.1035
     12 N           9.0730  -22.8240  -23.9990 N.ar    1  UNL1       -0.2096
     13 C           9.0050  -21.9930  -22.9150 C.ar    1  UNL1        0.2566
     14 N          10.0790  -21.4970  -22.3950 N.pl3   1  UNL1       -0.0860
@<TRIPOS>BOND
     1     2     1    1
     2     3     2   ar
     3     4     2   ar
     4     5     4   ar
     5     6     5    1
     6     7     3   ar
     7     7     5   ar
     8     8     7    1
     9     9     8   ar
    10    10     8   ar
    11    11    10   ar
    12    12    11   ar
    13    13    12   ar
    14    13     9   ar
    15    14    13    1
