@<TRIPOS>MOLECULE
4FKT_48K_A301
 49 51 0 0 0
SMALL
GASTEIGER

@<TRIPOS>ATOM
      1 S           2.8430  -28.1570  -25.9380 S.O2    1  UNL1        0.0584
      2 C           0.9650  -24.6720  -29.9820 C.3     1  UNL1       -0.0130
      3 O           2.8210  -29.0680  -24.8330 O.2     1  UNL1       -0.1530
      4 C          -0.5190  -26.3600  -29.0240 C.3     1  UNL1       -0.0130
      5 N           1.3870  -27.4610  -26.0030 N.3     1  UNL1       -0.1887
      6 O           3.1360  -28.6550  -27.2480 O.2     1  UNL1       -0.1530
      7 C           1.5880  -25.7700  -27.8570 C.3     1  UNL1        0.0125
      8 N           6.8930  -24.0660  -24.5440 N.pl3   1  UNL1       -0.3198
      9 O           9.5560  -23.2370  -24.6670 O.2     1  UNL1       -0.2698
     10 C           1.1740  -26.0700  -26.4270 C.3     1  UNL1        0.0302
     11 N          10.0040  -21.6660  -22.9840 N.am    1  UNL1       -0.2809
     12 C           4.0180  -26.9130  -25.5520 C.ar    1  UNL1        0.1054
     13 C           5.0370  -26.6300  -26.4450 C.ar    1  UNL1       -0.0336
     14 C           6.0040  -25.7060  -26.0960 C.ar    1  UNL1       -0.0387
     15 C           5.9180  -25.0290  -24.8880 C.ar    1  UNL1        0.0310
     16 C           6.8080  -23.1980  -23.5480 C.2     1  UNL1        0.0065
     17 C           7.8430  -22.3860  -23.1510 C.2     1  UNL1        0.0596
     18 C           9.2350  -22.5040  -23.7180 C.2     1  UNL1        0.2501
     19 C           9.2420  -20.9820  -22.0140 C.ar    1  UNL1        0.0416
     20 C           9.6540  -20.0730  -21.0550 C.ar    1  UNL1       -0.0399
     21 C           8.6930  -19.4890  -20.2330 C.ar    1  UNL1       -0.0600
     22 C           7.3460  -19.8340  -20.3610 C.ar    1  UNL1       -0.0611
     23 C           6.9470  -20.8030  -21.2790 C.ar    1  UNL1       -0.0521
     24 C           7.8950  -21.3860  -22.1180 C.ar    1  UNL1        0.0095
     25 C           4.8920  -25.3330  -24.0010 C.ar    1  UNL1       -0.0387
     26 C           3.9420  -26.2770  -24.3310 C.ar    1  UNL1       -0.0336
     27 H          11.0060  -21.5460  -23.0900 H       1  UNL1        0.1552
     28 H           0.1570  -24.2370  -30.5700 H       1  UNL1        0.0391
     29 H           1.4590  -25.4000  -30.6250 H       1  UNL1        0.0391
     30 H           1.6880  -23.8770  -29.8080 H       1  UNL1        0.0391
     31 H          -0.2810  -26.8970  -29.9410 H       1  UNL1        0.0391
     32 H          -0.5730  -27.1240  -28.2490 H       1  UNL1        0.0391
     33 H          -1.5320  -25.9760  -29.1380 H       1  UNL1        0.0391
     34 H           2.3930  -25.0380  -27.8620 H       1  UNL1        0.0439
     35 H           2.0100  -26.6420  -28.3540 H       1  UNL1        0.0439
     36 H           0.1210  -25.8270  -26.2940 H       1  UNL1        0.0454
     37 H           1.6740  -25.3990  -25.7310 H       1  UNL1        0.0454
     38 H           0.5260  -27.9320  -25.7420 H       1  UNL1        0.1480
     39 H           5.0830  -27.0990  -27.4270 H       1  UNL1        0.0638
     40 H           6.7990  -25.4840  -26.8060 H       1  UNL1        0.0637
     41 H           7.7230  -24.0840  -25.1290 H       1  UNL1        0.1516
     42 H           5.8590  -23.0300  -23.0410 H       1  UNL1        0.0789
     43 H          10.7120  -19.8740  -20.8960 H       1  UNL1        0.0636
     44 H           9.0340  -18.7910  -19.4710 H       1  UNL1        0.0618
     45 H           6.5960  -19.3260  -19.7570 H       1  UNL1        0.0618
     46 N           0.4650  -25.2830  -28.7230 N.3     1  UNL1       -0.3071
     47 H           5.9090  -21.1260  -21.3400 H       1  UNL1        0.0624
     48 H           4.8050  -24.8670  -23.0220 H       1  UNL1        0.0637
     49 H           3.1370  -26.5020  -23.6350 H       1  UNL1        0.0638
@<TRIPOS>BOND
     1     3     1    2
     2     1     5    1
     3     6     1    2
     4    10     5    1
     5    10     7    1
     6    12     1    1
     7    13    12   ar
     8    14    13   ar
     9    15    14   ar
    10    15     8    1
    11    16     8    1
    12    17    16    2
    13    18    17    1
    14    18     9    2
    15    18    11   am
    16    19    11    1
    17    20    19   ar
    18    21    20   ar
    19    22    21   ar
    20    23    22   ar
    21    24    17    1
    22    24    19   ar
    23    24    23   ar
    24    25    15   ar
    25    26    25   ar
    26    26    12   ar
    27    27    11    1
    28     2    28    1
    29    29     2    1
    30    30     2    1
    31     4    31    1
    32    32     4    1
    33    33     4    1
    34     7    34    1
    35    35     7    1
    36    10    36    1
    37    37    10    1
    38    38     5    1
    39    39    13    1
    40    40    14    1
    41    41     8    1
    42    42    16    1
    43    43    20    1
    44    44    21    1
    45    45    22    1
    46    46     7    1
    47    46     4    1
    48    46     2    1
    49    47    23    1
    50    48    25    1
    51    49    26    1
