@<TRIPOS>MOLECULE
4FKV_61K_A301
 32 35 0 0 0
SMALL
GASTEIGER

@<TRIPOS>ATOM
      1 N           1.6890  -21.9800  -21.6000 N.ar    1  UNL1       -0.2212
      2 S           2.9020  -28.3130  -25.5970 S.O2    1  UNL1        0.0935
      3 N           1.1060  -20.8980  -19.8350 N.ar    1  UNL1       -0.2268
      4 N           5.0980  -19.8700  -19.7470 N.am    1  UNL1       -0.2013
      5 N          10.0610  -21.8170  -23.2340 N.am    1  UNL1       -0.1741
      6 N           6.9460  -23.3510  -23.8130 N.2     1  UNL1       -0.1541
      7 N           1.4800  -27.8750  -24.9280 N.3     1  UNL1        0.0392
      8 N           7.0760  -24.3070  -24.6080 N.pl3   1  UNL1       -0.1170
      9 O           6.5190  -18.1280  -19.4450 O.2     1  UNL1       -0.2684
     10 O           9.6840  -23.4510  -24.7750 O.2     1  UNL1       -0.2663
     11 O           2.7940  -28.5200  -27.0730 O.2     1  UNL1       -0.1503
     12 O           3.4190  -29.5640  -24.9670 O.2     1  UNL1       -0.1503
     13 C           5.0190  -25.3230  -23.9740 C.ar    1  UNL1        0.0196
     14 C           6.1720  -26.0370  -25.9730 C.ar    1  UNL1        0.0196
     15 C           4.0310  -26.2850  -24.1920 C.ar    1  UNL1        0.0214
     16 C           5.1710  -26.9900  -26.2190 C.ar    1  UNL1        0.0214
     17 C           8.6280  -19.5340  -20.6590 C.ar    1  UNL1        0.0059
     18 C           9.6060  -20.1080  -21.4760 C.ar    1  UNL1        0.0168
     19 C           0.8230  -21.9570  -20.5900 C.ar    1  UNL1        0.1986
     20 C           2.5010  -20.9300  -21.4770 C.ar    1  UNL1        0.1154
     21 C           6.9640  -20.9990  -21.6590 C.ar    1  UNL1        0.0076
     22 C           3.9970  -19.2870  -18.9480 C.3     1  UNL1        0.1218
     23 C           2.7990  -18.9850  -19.8550 C.3     1  UNL1        0.0709
     24 C           6.2680  -19.2540  -19.8880 C.2     1  UNL1        0.2648
     25 C           6.0890  -25.1840  -24.8700 C.ar    1  UNL1        0.0915
     26 C           7.3030  -19.9580  -20.7730 C.ar    1  UNL1        0.0552
     27 C           2.1450  -20.2640  -20.3810 C.ar    1  UNL1        0.0816
     28 C           4.1110  -27.1070  -25.3170 C.ar    1  UNL1        0.1251
     29 C           9.2830  -22.6620  -23.9130 C.2     1  UNL1        0.2883
     30 C           7.9580  -22.5240  -23.4940 C.2     1  UNL1        0.1568
     31 C           9.2860  -21.1390  -22.3600 C.ar    1  UNL1        0.0753
     32 C           7.9660  -21.5960  -22.4480 C.ar    1  UNL1        0.0393
@<TRIPOS>BOND
     1     2     7    1
     2     8     6    1
     3    11     2    2
     4    12     2    2
     5    15    13   ar
     6    16    14   ar
     7    18    17   ar
     8    19     1   ar
     9    19     3   ar
    10    20     1   ar
    11    22     4    1
    12    23    22    1
    13    24     4   am
    14    24     9    2
    15    25    13   ar
    16    25    14   ar
    17    25     8    1
    18    26    24    1
    19    26    21   ar
    20    26    17   ar
    21    27    23    1
    22    27    20   ar
    23    27     3   ar
    24    28     2    1
    25    28    16   ar
    26    28    15   ar
    27    29    10    2
    28    29     5   am
    29    30    29    1
    30    30     6    2
    31    31     5    1
    32    31    18   ar
    33    32    30    1
    34    32    31   ar
    35    32    21   ar
