@<TRIPOS>MOLECULE
4RJ3_3QS_A302
 29 33 0 0 0
SMALL
GASTEIGER

@<TRIPOS>ATOM
      1 C           0.9250  -24.0310  -23.2000 C.3     1  UNL1        0.0511
      2 C           1.7820  -25.3020  -23.3550 C.3     1  UNL1        0.0961
      3 C           4.7010  -26.3130  -26.0120 C.ar    1  UNL1        0.1048
      4 C           3.5700  -24.2280  -21.8520 C.3     1  UNL1        0.0961
      5 C           2.7570  -22.9330  -21.8950 C.3     1  UNL1        0.0511
      6 C           4.1570  -25.2610  -24.0100 C.ar    1  UNL1        0.2214
      7 C           5.9380  -25.6790  -26.0050 C.ar    1  UNL1        0.0569
      8 C           6.2480  -24.8170  -24.9450 C.ar    1  UNL1        0.1576
      9 C           1.2770  -23.3420  -21.8710 C.3     1  UNL1        0.1188
     10 C           0.1690  -21.9740  -20.2500 C.3     1  UNL1        0.1740
     11 O           0.4480  -22.2000  -21.6350 O.3     1  UNL1       -0.3535
     12 N           3.2120  -25.0900  -23.0040 N.pl3   1  UNL1       -0.2780
     13 N           3.8470  -26.0790  -25.0130 N.ar    1  UNL1       -0.2120
     14 N           5.3410  -24.6280  -23.9710 N.ar    1  UNL1       -0.1968
     15 N           7.5010  -24.2050  -24.9750 N.pl3   1  UNL1       -0.1753
     16 C           8.0150  -23.2670  -24.0700 C.ar    1  UNL1        0.1547
     17 C           7.2080  -22.5880  -23.1530 C.ar    1  UNL1        0.0533
     18 C           7.7810  -21.6720  -22.2850 C.ar    1  UNL1        0.0642
     19 C           9.1790  -21.4520  -22.3720 C.ar    1  UNL1        0.0365
     20 C           9.4870  -20.4510  -21.3460 C.ar    1  UNL1        0.0216
     21 C           8.3340  -20.1440  -20.7360 C.ar    1  UNL1        0.0759
     22 N           7.2920  -20.8570  -21.2900 N.ar    1  UNL1       -0.3278
     23 C           5.8840  -20.8200  -20.8680 C.3     1  UNL1        0.0855
     24 C           5.7210  -21.7660  -19.6470 C.3     1  UNL1        0.0226
     25 C           4.5860  -21.1610  -18.7710 C.3     1  UNL1        0.0020
     26 C           4.1550  -19.8580  -19.5060 C.3     1  UNL1        0.0020
     27 C           5.4240  -19.4700  -20.3000 C.3     1  UNL1        0.0226
     28 C           9.9250  -22.1710  -23.3140 C.ar    1  UNL1        0.1018
     29 N           9.3290  -23.0400  -24.1250 N.ar    1  UNL1       -0.2272
@<TRIPOS>BOND
     1     2     1    1
     2     5     4    1
     3     7     3   ar
     4     8     7   ar
     5     9     5    1
     6     9     1    1
     7     9    11    1
     8    11    10    1
     9    12     6    1
    10    12     4    1
    11    12     2    1
    12    13     6   ar
    13    13     3   ar
    14    14     6   ar
    15    14     8   ar
    16    15     8    1
    17    16    15    1
    18    17    16   ar
    19    18    17   ar
    20    19    18   ar
    21    20    19   ar
    22    21    20   ar
    23    22    18   ar
    24    22    21   ar
    25    23    22    1
    26    24    23    1
    27    25    24    1
    28    26    25    1
    29    27    26    1
    30    27    23    1
    31    28    19   ar
    32    29    28   ar
    33    29    16   ar
