@<TRIPOS>MOLECULE
5ANJ_ZXC_A1299
 17 19 0 0 0
SMALL
GASTEIGER

@<TRIPOS>ATOM
      1 C           7.8350  -22.0770  -22.7030 C.ar    1  UNL1        0.1520
      2 C           6.7370  -22.6900  -23.2290 C.ar    1  UNL1        0.1771
      3 C           9.0960  -22.3710  -23.2400 C.ar    1  UNL1        0.1861
      4 N           8.0400  -21.2360  -21.6710 N.ar    1  UNL1       -0.2179
      5 N           5.4060  -22.5590  -22.8020 N.am    1  UNL1       -0.1545
      6 N           6.8290  -23.5560  -24.2610 N.ar    1  UNL1       -0.2054
      7 N          10.0350  -21.7670  -22.5220 N.ar    1  UNL1       -0.2032
      8 N           9.1990  -23.2290  -24.2400 N.ar    1  UNL1       -0.2031
      9 C           9.3530  -21.0340  -21.5390 C.ar    1  UNL1        0.2005
     10 C           4.7420  -21.4490  -22.3400 C.2     1  UNL1        0.2764
     11 C           8.0530  -23.7960  -24.8330 C.ar    1  UNL1        0.2016
     12 C           3.3830  -21.5740  -22.1960 C.ar    1  UNL1        0.0849
     13 O           5.2500  -20.3460  -22.2030 O.2     1  UNL1       -0.2674
     14 C           2.6010  -22.6500  -22.2520 C.ar    1  UNL1        0.0116
     15 S           2.3640  -20.1710  -22.1890 S.2     1  UNL1       -0.0818
     16 C           1.2520  -22.3500  -22.2150 C.ar    1  UNL1        0.0076
     17 C           0.9330  -21.0520  -22.1620 C.ar    1  UNL1        0.0356
@<TRIPOS>BOND
     1     2     1   ar
     2     3     1   ar
     3     4     1   ar
     4     5     2    1
     5     6     2   ar
     6     7     3   ar
     7     8     3   ar
     8     9     7   ar
     9     9     4   ar
    10    10     5   am
    11    11     8   ar
    12    11     6   ar
    13    12    10    1
    14    13    10    2
    15    14    12   ar
    16    15    12   ar
    17    16    14   ar
    18    17    16   ar
    19    17    15   ar
