@<TRIPOS>MOLECULE
5ANJ_ZXC_A1299
 17 19 0 0 0
SMALL
GASTEIGER

@<TRIPOS>ATOM
      1 C           7.8090  -22.0760  -22.9210 C.ar    1  UNL1        0.1520
      2 C           6.6670  -22.6590  -23.3880 C.ar    1  UNL1        0.1771
      3 C           9.0270  -22.3800  -23.5460 C.ar    1  UNL1        0.1861
      4 N           8.0960  -21.2640  -21.8860 N.ar    1  UNL1       -0.2179
      5 N           5.3700  -22.5150  -22.8710 N.am    1  UNL1       -0.1545
      6 N           6.6760  -23.5010  -24.4420 N.ar    1  UNL1       -0.2054
      7 N          10.0210  -21.8090  -22.8780 N.ar    1  UNL1       -0.2032
      8 N           9.0470  -23.2160  -24.5700 N.ar    1  UNL1       -0.2031
      9 C           9.4190  -21.0870  -21.8360 C.ar    1  UNL1        0.2005
     10 C           4.7580  -21.4040  -22.3420 C.2     1  UNL1        0.2764
     11 C           7.8550  -23.7490  -25.0980 C.ar    1  UNL1        0.2016
     12 C           3.4100  -21.5090  -22.1120 C.ar    1  UNL1        0.0849
     13 O           5.2940  -20.3130  -22.2140 O.2     1  UNL1       -0.2674
     14 C           2.6050  -22.5700  -22.1400 C.ar    1  UNL1        0.0116
     15 S           2.4190  -20.0900  -22.0070 S.2     1  UNL1       -0.0818
     16 C           1.2680  -22.2480  -22.0090 C.ar    1  UNL1        0.0076
     17 C           0.9770  -20.9460  -21.9060 C.ar    1  UNL1        0.0356
@<TRIPOS>BOND
     1     2     1   ar
     2     3     1   ar
     3     4     1   ar
     4     5     2    1
     5     6     2   ar
     6     7     3   ar
     7     8     3   ar
     8     9     7   ar
     9     9     4   ar
    10    10     5   am
    11    11     8   ar
    12    11     6   ar
    13    12    10    1
    14    13    10    2
    15    14    12   ar
    16    15    12   ar
    17    16    14   ar
    18    17    16   ar
    19    17    15   ar
