@<TRIPOS>MOLECULE
5IEY_6AE_A1001
 23 24 0 0 0
SMALL
GASTEIGER

@<TRIPOS>ATOM
      1 C           4.5110  -26.9940  -25.4620 C.ar    1  UNL1        0.1251
      2 C           4.5930  -25.9760  -24.5160 C.ar    1  UNL1        0.0213
      3 C           5.6800  -25.1350  -24.4020 C.ar    1  UNL1        0.0180
      4 C           6.7450  -25.3470  -25.2730 C.ar    1  UNL1        0.0737
      5 C           5.5510  -27.2230  -26.3450 C.ar    1  UNL1        0.0213
      6 C           9.1440  -21.6790  -22.7250 C.ar    1  UNL1        0.0565
      7 C           4.9320  -21.6160  -20.4610 C.3     1  UNL1        0.1718
      8 C           5.9680  -22.0010  -19.5360 C.3     1  UNL1        0.0373
      9 O           4.8140  -20.1450  -20.4910 O.3     1  UNL1       -0.2213
     10 C           5.4930  -22.0720  -21.8420 C.3     1  UNL1        0.1243
     11 C           4.4700  -21.5820  -22.8640 C.3     1  UNL1        0.0261
     12 N           6.8260  -21.4500  -22.0360 N.pl3   1  UNL1       -0.2194
     13 C           7.7850  -22.0600  -22.7760 C.ar    1  UNL1        0.1520
     14 N           7.4260  -23.0300  -23.6060 N.ar    1  UNL1       -0.1957
     15 C          10.0540  -22.3620  -23.5400 C.ar    1  UNL1        0.1048
     16 N           9.6210  -23.3830  -24.3410 N.ar    1  UNL1       -0.2105
     17 C           8.3120  -23.7290  -24.3500 C.ar    1  UNL1        0.2421
     18 N           7.9040  -24.6970  -25.1930 N.pl3   1  UNL1       -0.1776
     19 C           6.6680  -26.4130  -26.1810 C.ar    1  UNL1        0.0180
     20 S           3.1130  -28.0350  -25.5860 S.O2    1  UNL1        0.0935
     21 O           3.5170  -29.2330  -24.8560 O.2     1  UNL1       -0.1503
     22 O           2.8760  -28.3310  -27.0610 O.2     1  UNL1       -0.1503
     23 N           1.7730  -27.3720  -24.9880 N.3     1  UNL1        0.0392
@<TRIPOS>BOND
     1     2     1   ar
     2     3     2   ar
     3     4     3   ar
     4     5     1   ar
     5     7     8    1
     6     9     7    1
     7    10     7    1
     8    10    11    1
     9    12    10    1
    10    13    12    1
    11    13     6   ar
    12    14    13   ar
    13    15     6   ar
    14    16    15   ar
    15    17    16   ar
    16    17    14   ar
    17    18    17    1
    18    18     4    1
    19    19     5   ar
    20    19     4   ar
    21    20     1    1
    22    21    20    2
    23    22    20    2
    24    20    23    1
