@<TRIPOS>MOLECULE
5K4J_6QB_A301
 31 34 0 0 0
SMALL
GASTEIGER

@<TRIPOS>ATOM
      1 C           5.4590  -25.4250  -23.8390 C.ar    1  UNL1        0.0583
      2 C           4.3010  -26.1380  -24.2050 C.ar    1  UNL1        0.1231
      3 C           8.0210  -23.6800  -24.3080 C.ar    1  UNL1        0.2422
      4 C           9.9170  -22.4780  -23.5710 C.ar    1  UNL1        0.1034
      5 C           5.3970  -21.8960  -21.8050 C.ar    1  UNL1        0.0204
      6 C           7.1040  -20.5340  -20.7890 C.ar    1  UNL1        0.0623
      7 C           3.8950  -20.1850  -18.9290 C.3     1  UNL1        0.1439
      8 C           3.5320  -17.9460  -18.0170 C.ar    1  UNL1       -0.0014
      9 C           2.4760  -16.1680  -19.1780 C.ar    1  UNL1        0.0850
     10 C           6.0580  -26.0930  -27.3680 C.3     1  UNL1        0.1552
     11 N           5.6200  -25.9520  -25.9740 N.ar    1  UNL1       -0.2339
     12 C           6.2600  -25.2960  -24.9450 C.ar    1  UNL1        0.1533
     13 N           4.3990  -26.4760  -25.4720 N.ar    1  UNL1       -0.1665
     14 N           7.4910  -24.6670  -25.0760 N.pl3   1  UNL1       -0.1591
     15 N           9.3190  -23.4150  -24.4010 N.ar    1  UNL1       -0.2106
     16 C           9.1020  -21.7460  -22.7070 C.ar    1  UNL1        0.0399
     17 C           7.7210  -22.0700  -22.6830 C.ar    1  UNL1        0.0860
     18 N           7.2170  -23.0380  -23.4510 N.ar    1  UNL1       -0.2121
     19 C           6.7450  -21.4610  -21.7380 C.ar    1  UNL1        0.0240
     20 C           4.4730  -21.4280  -20.9340 C.ar    1  UNL1        0.0787
     21 N           4.8590  -20.5700  -19.9690 N.ar    1  UNL1       -0.2896
     22 C           6.1160  -20.0970  -19.8830 C.ar    1  UNL1        0.2613
     23 O           6.4190  -19.3220  -18.9800 O.2     1  UNL1       -0.2670
     24 C           2.8460  -21.3180  -18.7130 C.3     1  UNL1        0.2091
     25 O           2.3230  -21.2030  -17.3640 O.3     1  UNL1       -0.2179
     26 C           3.3580  -18.7880  -19.0980 C.ar    1  UNL1        0.0032
     27 C           3.0900  -16.6430  -18.0390 C.ar    1  UNL1        0.0134
     28 C           2.2880  -17.0140  -20.2660 C.ar    1  UNL1        0.1503
     29 C           2.7300  -18.3380  -20.2330 C.ar    1  UNL1        0.0281
     30 F           1.6840  -16.5220  -21.3690 F       1  UNL1       -0.2033
     31 CL          1.9360  -14.5190  -19.2060 Cl      1  UNL1       -0.0799
@<TRIPOS>BOND
     1     2     1   ar
     2    11    10    1
     3    12    11   ar
     4    12     1   ar
     5    13     2   ar
     6    13    11   ar
     7    14    12    1
     8    14     3    1
     9    15     4   ar
    10    15     3   ar
    11    16     4   ar
    12    17    16   ar
    13    18    17   ar
    14    18     3   ar
    15    19     5   ar
    16    19    17    1
    17    19     6   ar
    18    20     5   ar
    19    21    20   ar
    20    21     7    1
    21    22    21   ar
    22    22     6   ar
    23    23    22    2
    24     7    24    1
    25    25    24    1
    26    26     8   ar
    27    26     7    1
    28    27     8   ar
    29    27     9   ar
    30    28     9   ar
    31    29    28   ar
    32    29    26   ar
    33    30    28    1
    34    31     9    1
