@<TRIPOS>MOLECULE
5MHQ_8QT_A301
 27 29 0 0 0
SMALL
GASTEIGER

@<TRIPOS>ATOM
      1 C           5.5360  -22.5500  -22.3010 C.ar    1  UNL1        0.2391
      2 C           9.1200  -19.9910  -22.0120 C.3     1  UNL1        0.0885
      3 C           6.7900  -23.8990  -23.7420 C.ar    1  UNL1        0.1715
      4 C           5.9800  -26.1120  -24.4510 C.3     1  UNL1        0.1417
      5 C           3.8000  -26.5770  -25.6100 C.ar    1  UNL1        0.0963
      6 C           5.1040  -26.1480  -25.6790 C.ar    1  UNL1        0.0186
      7 C           5.5740  -25.7470  -26.9030 C.ar    1  UNL1        0.0006
      8 C           4.7510  -25.7780  -27.9980 C.ar    1  UNL1        0.0204
      9 C           3.4770  -26.2090  -27.8390 C.ar    1  UNL1        0.0989
     10 C           7.8480  -22.9970  -23.6070 C.ar    1  UNL1        0.1500
     11 C           9.6640  -21.9270  -23.5760 C.ar    1  UNL1        0.1797
     12 N           4.3820  -22.4110  -21.6280 N.pl3   1  UNL1       -0.2030
     13 N           5.6420  -23.6470  -23.0900 N.ar    1  UNL1       -0.1943
     14 C           4.0570  -21.2050  -20.8660 C.3     1  UNL1        0.1257
     15 N           6.9090  -24.9940  -24.4980 N.pl3   1  UNL1       -0.2140
     16 C           1.9670  -20.9350  -22.2710 C.3     1  UNL1        0.0019
     17 C           2.5460  -20.9850  -20.8840 C.3     1  UNL1        0.0243
     18 N           2.9740  -26.6170  -26.6630 N.ar    1  UNL1       -0.2426
     19 N           9.1430  -22.9940  -24.1280 N.ar    1  UNL1       -0.2194
     20 N           8.8080  -21.1990  -22.7940 N.ar    1  UNL1       -0.2962
     21 C           9.1900  -20.3500  -20.5510 C.3     1  UNL1        0.0246
     22 C           8.1230  -18.8740  -22.2940 C.3     1  UNL1        0.0246
     23 C           7.6340  -21.9220  -22.7640 C.ar    1  UNL1        0.1685
     24 N           6.5020  -21.6270  -22.0950 N.ar    1  UNL1       -0.1933
     25 C           4.6480  -21.2460  -19.4410 C.3     1  UNL1        0.1718
     26 C           4.3850  -19.9710  -18.6770 C.3     1  UNL1        0.0373
     27 O           4.1010  -22.2910  -18.6410 O.3     1  UNL1       -0.2213
@<TRIPOS>BOND
     1     6     5   ar
     2     6     4    1
     3     7     6   ar
     4     8     7   ar
     5     9     8   ar
     6    10     3   ar
     7    12     1    1
     8    13     3   ar
     9    13     1   ar
    10    14    12    1
    11    15     4    1
    12    15     3    1
    13    17    16    1
    14    14    17    1
    15    18     9   ar
    16    18     5   ar
    17    19    11   ar
    18    19    10   ar
    19    20    11   ar
    20    20     2    1
    21     2    21    1
    22    22     2    1
    23    23    10   ar
    24    23    20   ar
    25    24    23   ar
    26    24     1   ar
    27    25    14    1
    28    25    26    1
    29    27    25    1
