@<TRIPOS>MOLECULE
6Q3B_PYZ_A301
 6 6 0 0 0
SMALL
GASTEIGER

@<TRIPOS>ATOM
      1 N           8.0960  -23.1650  -24.7720 N.ar    1  UNL1       -0.1458
      2 N           9.3990  -23.1970  -24.5060 N.ar    1  UNL1       -0.1458
      3 C           9.7300  -22.3910  -23.4880 C.ar    1  UNL1        0.1295
      4 C           8.5900  -21.8450  -23.0310 C.ar    1  UNL1        0.0719
      5 I           8.4620  -20.5680  -21.4080 I       1  UNL1       -0.0392
      6 C           7.5660  -22.3990  -23.8080 C.ar    1  UNL1        0.1295
@<TRIPOS>BOND
     1     2     1   ar
     2     3     2   ar
     3     4     3   ar
     4     5     4    1
     5     6     4   ar
     6     6     1   ar
