@<TRIPOS>MOLECULE
6Q4A_HGW_A301
 7 7 0 0 0
SMALL
GASTEIGER

@<TRIPOS>ATOM
      1 C           9.6210  -22.4830  -23.5760 C.ar    1  UNL1        0.1080
      2 N           6.9540  -22.7370  -24.1150 N.ar    1  UNL1       -0.2220
      3 N           9.1880  -23.2460  -24.6410 N.ar    1  UNL1       -0.2220
      4 C           7.8670  -23.3720  -24.8370 C.ar    1  UNL1        0.1989
      5 I           9.3210  -20.7140  -21.0680 I       1  UNL1       -0.0393
      6 C           8.7150  -21.8640  -22.7270 C.ar    1  UNL1        0.0684
      7 C           7.3760  -22.0040  -23.0580 C.ar    1  UNL1        0.1080
@<TRIPOS>BOND
     1     3     1   ar
     2     4     3   ar
     3     4     2   ar
     4     6     1   ar
     5     6     5    1
     6     7     6   ar
     7     7     2   ar
