@<TRIPOS>MOLECULE
6Q4B_HHN_A301
 7 7 0 0 0
SMALL
GASTEIGER

@<TRIPOS>ATOM
      1 C           7.5520  -22.1200  -22.7420 C.ar    1  UNL1        0.1089
      2 N           9.3930  -23.3850  -24.2730 N.ar    1  UNL1       -0.2219
      3 N           7.1510  -22.8500  -23.8000 N.ar    1  UNL1       -0.2219
      4 C           8.0920  -23.4560  -24.5120 C.ar    1  UNL1        0.1989
      5 BR          9.3720  -20.8630  -20.9710 Br      1  UNL1       -0.0458
      6 C           8.8960  -21.9270  -22.4480 C.ar    1  UNL1        0.0729
      7 C           9.8170  -22.6270  -23.2160 C.ar    1  UNL1        0.1089
@<TRIPOS>BOND
     1     3     1   ar
     2     4     3   ar
     3     4     2   ar
     4     6     1   ar
     5     6     5    1
     6     7     6   ar
     7     7     2   ar
