@<TRIPOS>MOLECULE
6Q4H_HGH_A301
 21 23 0 0 0
SMALL
GASTEIGER

@<TRIPOS>ATOM
      1 C           3.9890  -21.2650  -22.7320 C.ar    1  UNL1        0.0375
      2 C           2.6220  -21.1700  -22.7170 C.ar    1  UNL1        0.0028
      3 C           1.9160  -21.2900  -21.5430 C.ar    1  UNL1       -0.0035
      4 C           8.2080  -21.7260  -22.0040 C.ar    1  UNL1        0.1721
      5 C           2.5680  -21.4690  -20.3500 C.ar    1  UNL1       -0.0079
      6 C           1.8040  -21.6580  -19.0620 C.3     1  UNL1        0.1405
      7 C           1.8630  -20.5820  -18.0140 C.2     1  UNL1        0.3692
      8 C           3.9460  -21.5530  -20.3500 C.ar    1  UNL1        0.0338
      9 C          10.1130  -21.1110  -21.3550 C.ar    1  UNL1        0.2005
     10 C           9.1540  -22.3290  -22.8550 C.ar    1  UNL1        0.1892
     11 N           7.1490  -24.1290  -25.0330 N.pl3   1  UNL1       -0.0859
     12 N           6.5370  -22.7960  -23.2550 N.ar    1  UNL1       -0.1745
     13 C           4.6300  -21.4400  -21.5410 C.ar    1  UNL1        0.1469
     14 N           8.8490  -21.0080  -21.0310 N.ar    1  UNL1       -0.2160
     15 C           7.5280  -23.3350  -24.0160 C.ar    1  UNL1        0.2606
     16 C           6.8880  -22.0090  -22.2430 C.ar    1  UNL1        0.2532
     17 O           6.0080  -21.3960  -21.3940 O.3     1  UNL1       -0.4347
     18 O           2.6750  -19.6440  -18.1010 O.co2   1  UNL1       -0.2453
     19 O           1.0540  -20.6420  -17.0840 O.co2   1  UNL1       -0.2453
     20 N          10.3740  -21.9360  -22.4130 N.ar    1  UNL1       -0.2031
     21 N           8.8470  -23.1320  -23.8800 N.ar    1  UNL1       -0.1902
@<TRIPOS>BOND
     1     2     1   ar
     2     3     2   ar
     3     5     3   ar
     4     6     5    1
     5     7     6    1
     6     8     5   ar
     7    10     4   ar
     8    13     1   ar
     9    13     8   ar
    10    14     4   ar
    11    14     9   ar
    12    15    12   ar
    13    15    11    1
    14    16    12   ar
    15    16     4   ar
    16    17    13    1
    17    17    16    1
    18    18     7   ar
    19    19     7   ar
    20    20    10   ar
    21    20     9   ar
    22    21    15   ar
    23    21    10   ar
