@<TRIPOS>MOLECULE
6Q4J_HHB_A303
 17 18 0 0 0
SMALL
GASTEIGER

@<TRIPOS>ATOM
      1 C           3.1750  -21.3490  -20.4960 C.ar    1  UNL1       -0.0036
      2 C           3.6250  -21.5390  -21.7850 C.ar    1  UNL1        0.0010
      3 C           4.9710  -21.5880  -22.0520 C.ar    1  UNL1        0.0165
      4 C           8.2230  -23.4030  -24.0420 C.ar    1  UNL1        0.2001
      5 C           5.8840  -21.4440  -21.0140 C.ar    1  UNL1        0.0718
      6 C           8.0150  -22.0600  -22.2010 C.ar    1  UNL1        0.1550
      7 C           9.4010  -21.9430  -22.1400 C.ar    1  UNL1        0.0568
      8 C          10.1090  -22.5900  -23.0950 C.ar    1  UNL1        0.1036
      9 C           5.4230  -21.2280  -19.7220 C.ar    1  UNL1        0.0128
     10 N           7.2700  -21.4500  -21.2270 N.pl3   1  UNL1       -0.1941
     11 N           9.5530  -23.3380  -24.0690 N.ar    1  UNL1       -0.2223
     12 C           4.0670  -21.1530  -19.4510 C.ar    1  UNL1       -0.0097
     13 N           7.4240  -22.7840  -23.1630 N.ar    1  UNL1       -0.2072
     14 O           3.5410  -18.5730  -18.4110 O.co2   1  UNL1       -0.2453
     15 C           3.1910  -19.5260  -17.6640 C.2     1  UNL1        0.3692
     16 O           2.5960  -19.3680  -16.5700 O.co2   1  UNL1       -0.2453
     17 C           3.5770  -20.9550  -18.0430 C.3     1  UNL1        0.1404
@<TRIPOS>BOND
     1     2     1   ar
     2     3     2   ar
     3     5     3   ar
     4     7     6   ar
     5     8     7   ar
     6     9     5   ar
     7    10     6    1
     8    10     5    1
     9    11     8   ar
    10    11     4   ar
    11    12     9   ar
    12    12     1   ar
    13    13     6   ar
    14    13     4   ar
    15    15    14   ar
    16    16    15   ar
    17    17    15    1
    18    17    12    1
