@<TRIPOS>MOLECULE
6YL1_OWN_A301
 22 24 0 0 0
SMALL
GASTEIGER

@<TRIPOS>ATOM
      1 N           8.0310  -18.8470  -20.7700 N.am    1  UNL1       -0.2522
      2 C           8.3540  -22.1920  -23.2930 C.ar    1  UNL1        0.0770
      3 O           8.4880  -16.7040  -20.2580 O.2     1  UNL1       -0.2696
      4 C           7.0390  -20.7590  -21.9020 C.ar    1  UNL1        0.0620
      5 C           4.6850  -21.3200  -21.4610 C.3     1  UNL1        0.0908
      6 C           3.4530  -20.6870  -20.8280 C.3     1  UNL1        0.0198
      7 C           2.2520  -21.6120  -20.9910 C.3     1  UNL1        0.0018
      8 C           2.9950  -21.5580  -19.6650 C.3     1  UNL1        0.0018
      9 C           8.4430  -23.3790  -24.1990 C.2     1  UNL1        0.3414
     10 C           7.2830  -25.1150  -25.5320 C.3     1  UNL1        0.2560
     11 C           7.1230  -19.1250  -19.6700 C.3     1  UNL1        0.1199
     12 C           8.4980  -17.6160  -21.0520 C.2     1  UNL1        0.2529
     13 C           9.0370  -17.2700  -22.4220 C.2     1  UNL1        0.0583
     14 C          10.4760  -16.8160  -22.2770 C.2     1  UNL1        0.0048
     15 C           8.2410  -19.9550  -21.6110 C.ar    1  UNL1        0.0675
     16 C           9.4540  -20.3370  -22.1910 C.ar    1  UNL1        0.0164
     17 C           9.4970  -21.4500  -23.0160 C.ar    1  UNL1        0.0078
     18 C           7.1270  -21.8610  -22.7240 C.ar    1  UNL1        0.0222
     19 C           5.7740  -19.2610  -20.3870 C.3     1  UNL1        0.1127
     20 N           5.8280  -20.4220  -21.2790 N.pl3   1  UNL1       -0.3048
     21 O           9.5220  -23.7640  -24.6400 O.2     1  UNL1       -0.2449
     22 O           7.2230  -24.0680  -24.5800 O.3     1  UNL1       -0.4413
@<TRIPOS>BOND
     1     6     5    1
     2     7     6    1
     3     8     7    1
     4     8     6    1
     5     9     2    1
     6    11     1    1
     7    12     3    2
     8    12     1   am
     9    13    12    1
    10    14    13    2
    11    15     4   ar
    12    15     1    1
    13    16    15   ar
    14    17     2   ar
    15    17    16   ar
    16    18     2   ar
    17    18     4   ar
    18    19    11    1
    19    20     5    1
    20    20     4    1
    21    20    19    1
    22    21     9    2
    23    22    10    1
    24    22     9    1
