@<TRIPOS>MOLECULE
7M2F_YOS_A901
 34 38 0 0 0
SMALL
GASTEIGER

@<TRIPOS>ATOM
      1 C           6.4860  -23.0440  -23.5900 C.ar    1  UNL1        0.0219
      2 C           7.9240  -19.3380  -21.8010 C.ar    1  UNL1        0.0327
      3 C          10.5630  -22.4200  -23.3310 C.ar    1  UNL1        0.1006
      4 C           7.8310  -22.6120  -23.3450 C.ar    1  UNL1        0.0374
      5 C           8.4500  -21.6610  -22.5040 C.ar    1  UNL1        0.0075
      6 C           6.7410  -21.1160  -20.6930 C.ar    1  UNL1        0.1388
      7 C           8.6600  -23.4480  -24.1130 C.ar    1  UNL1        0.1622
      8 C           5.4780  -24.9720  -24.9190 C.2     1  UNL1       -0.0060
      9 C           4.5360  -26.6340  -26.5400 C.3     1  UNL1        0.0986
     10 C           0.2500  -29.0100  -25.5720 C.3     1  UNL1        0.0019
     11 C           1.5800  -27.0390  -27.3160 C.3     1  UNL1        0.0160
     12 C           1.3060  -28.0500  -25.0040 C.3     1  UNL1        0.0160
     13 C          -0.4860  -28.4090  -26.7660 C.3     1  UNL1        0.0113
     14 C           5.6180  -22.9470  -19.6210 C.3     1  UNL1        0.2525
     15 C           5.9800  -20.1740  -19.9850 C.ar    1  UNL1        0.0392
     16 C           6.1950  -18.8220  -20.1940 C.ar    1  UNL1        0.0327
     17 C           9.8460  -21.5690  -22.5070 C.ar    1  UNL1        0.0209
     18 C           7.7040  -20.7090  -21.6270 C.ar    1  UNL1        0.0364
     19 C           7.1640  -18.4460  -21.0840 C.ar    1  UNL1        0.1403
     20 C           6.5560  -24.1130  -24.4470 C.ar    1  UNL1        0.0789
     21 C           5.6710  -25.8430  -25.9690 C.2     1  UNL1       -0.0115
     22 C          -2.5040  -28.6350  -28.2600 C.2     1  UNL1        0.3649
     23 C           4.1290  -24.8370  -24.2490 C.3     1  UNL1        0.0449
     24 C           0.5300  -28.0280  -27.8400 C.3     1  UNL1        0.0019
     25 C           3.0110  -25.5000  -25.0490 C.3     1  UNL1        0.0771
     26 C           2.2930  -27.6300  -26.0990 C.3     1  UNL1        0.0578
     27 C          -1.5720  -29.3390  -27.3080 C.3     1  UNL1        0.1140
     28 N          10.0050  -23.3600  -24.1130 N.ar    1  UNL1       -0.2251
     29 N           7.8780  -24.3520  -24.7820 N.ar    1  UNL1       -0.2269
     30 N           3.4140  -26.8030  -25.6040 N.3     1  UNL1       -0.2700
     31 O          -2.8280  -27.4630  -28.1250 O.co2   1  UNL1       -0.2457
     32 O          -2.9070  -29.3900  -29.2510 O.co2   1  UNL1       -0.2457
     33 O           6.6170  -22.4700  -20.5250 O.3     1  UNL1       -0.4714
     34 F           7.3560  -17.1300  -21.3080 F       1  UNL1       -0.2042
@<TRIPOS>BOND
     1     4     1   ar
     2     5     4   ar
     3     7     4   ar
     4    12    10    1
     5    13    10    1
     6    15     6   ar
     7    16    15   ar
     8    17     3   ar
     9    17     5   ar
    10    18     5    1
    11    18     2   ar
    12    18     6   ar
    13    19     2   ar
    14    19    16   ar
    15    20     8    1
    16    20     1   ar
    17    21     9    1
    18    21     8    2
    19    23     8    1
    20    24    13    1
    21    24    11    1
    22    25    23    1
    23    26    12    1
    24    26    11    1
    25    27    22    1
    26    13    27    1
    27    28     7   ar
    28    28     3   ar
    29    29    20   ar
    30    29     7   ar
    31    26    30    1
    32    30    25    1
    33    30     9    1
    34    31    22   ar
    35    32    22   ar
    36    33    14    1
    37    33     6    1
    38    34    19    1
