@<TRIPOS>MOLECULE
7RA5_3I3_A301
 30 33 0 0 0
SMALL
GASTEIGER

@<TRIPOS>ATOM
      1 C           1.9830  -20.6130  -18.6130 C.3     1  UNL1        0.1816
      2 C           3.0600  -20.1950  -21.1510 C.ar    1  UNL1        0.1232
      3 C           2.3670  -20.4670  -22.3310 C.ar    1  UNL1        0.0199
      4 C           2.9870  -21.1470  -23.3820 C.ar    1  UNL1        0.0014
      5 C           4.3080  -21.5300  -23.2840 C.ar    1  UNL1        0.0017
      6 C           6.4920  -21.0060  -20.4250 C.ar    1  UNL1        0.1004
      7 C           7.4010  -22.1750  -22.5320 C.ar    1  UNL1        0.0912
      8 C           7.7700  -23.8150  -24.1380 C.ar    1  UNL1        0.2365
      9 C           9.5620  -22.5950  -23.4690 C.ar    1  UNL1        0.1072
     10 C           9.4370  -20.7820  -21.7590 C.3     1  UNL1        0.4214
     11 C           3.9180  -27.3430  -25.1070 C.3     1  UNL1        0.0888
     12 C           5.5340  -26.0340  -23.7180 C.3     1  UNL1        0.1103
     13 S           2.3050  -19.3110  -19.8110 S.O2    1  UNL1        0.0119
     14 O           3.3410  -18.4310  -19.3820 O.2     1  UNL1       -0.1685
     15 O           1.1150  -18.7380  -20.3350 O.2     1  UNL1       -0.1685
     16 C           5.0220  -21.2520  -22.1140 C.ar    1  UNL1        0.0219
     17 C           6.3970  -21.5040  -21.6790 C.ar    1  UNL1        0.0384
     18 N           5.3190  -20.4580  -20.0530 N.ar    1  UNL1       -0.2425
     19 C           4.3980  -20.5860  -21.0430 C.ar    1  UNL1        0.0984
     20 N           6.9600  -23.1190  -23.3460 N.ar    1  UNL1       -0.2124
     21 N           9.0610  -23.5500  -24.1930 N.ar    1  UNL1       -0.2109
     22 C           8.7820  -21.8620  -22.5790 C.ar    1  UNL1        0.1083
     23 F          10.7260  -20.6340  -22.1700 F       1  UNL1       -0.1657
     24 F           8.7820  -19.5700  -21.8840 F       1  UNL1       -0.1657
     25 F           9.4990  -21.0960  -20.3970 F       1  UNL1       -0.1657
     26 N           7.2720  -24.7930  -24.9480 N.pl3   1  UNL1       -0.2042
     27 C           5.8490  -25.1370  -24.9430 C.3     1  UNL1        0.1129
     28 C           5.6070  -25.9330  -26.2320 C.3     1  UNL1        0.0246
     29 C           4.1570  -26.3780  -26.2750 C.3     1  UNL1        0.0206
     30 N           4.1860  -26.6610  -23.8340 N.3     1  UNL1       -0.2162
@<TRIPOS>BOND
     1     3     2   ar
     2     4     3   ar
     3     5     4   ar
     4    13     2    1
     5    13     1    1
     6    14    13    2
     7    15    13    2
     8    16     5   ar
     9    17    16   ar
    10    17     7    1
    11    17     6   ar
    12    18     6   ar
    13    19    16   ar
    14    19    18   ar
    15    19     2   ar
    16    20     8   ar
    17    20     7   ar
    18    21     9   ar
    19    21     8   ar
    20    22     9   ar
    21    22     7   ar
    22    22    10    1
    23    10    23    1
    24    24    10    1
    25    25    10    1
    26    26     8    1
    27    27    26    1
    28    27    12    1
    29    28    27    1
    30    29    11    1
    31    29    28    1
    32    30    11    1
    33    30    12    1
