@<TRIPOS>MOLECULE
7ZPC_JLC_A301
 24 27 0 0 0
SMALL
GASTEIGER

@<TRIPOS>ATOM
      1 C           6.3740  -23.9450  -24.4820 C.2     1  UNL1        0.2870
      2 C           4.2510  -26.8140  -25.6670 C.ar    1  UNL1        0.1655
      3 C           5.6260  -24.8440  -25.4190 C.ar    1  UNL1        0.1411
      4 C           5.4770  -24.6760  -26.8090 C.ar    1  UNL1        0.0430
      5 C           3.8510  -25.2210  -31.7360 C.ar    1  UNL1        0.0000
      6 C           4.7240  -25.6150  -27.5670 C.ar    1  UNL1        0.0846
      7 C           4.4720  -25.4820  -29.0250 C.ar    1  UNL1        0.0178
      8 C           3.5240  -26.3070  -29.6320 C.ar    1  UNL1        0.0015
      9 C           3.2250  -26.1830  -30.9790 C.ar    1  UNL1        0.0000
     10 C           4.7720  -24.3780  -31.1490 C.ar    1  UNL1        0.0000
     11 C           5.0760  -24.4970  -29.8020 C.ar    1  UNL1        0.0015
     12 N           9.3730  -21.6350  -22.4010 N.ar    1  UNL1       -0.2460
     13 N           7.6950  -23.7770  -24.6820 N.am    1  UNL1       -0.1709
     14 C           8.5250  -23.0210  -23.8620 C.ar    1  UNL1        0.1132
     15 N           4.1240  -26.6400  -26.9950 N.ar    1  UNL1       -0.2264
     16 C           9.5810  -20.6850  -21.3200 C.3     1  UNL1        0.1538
     17 C           8.2060  -22.1190  -22.8710 C.ar    1  UNL1        0.1133
     18 O           5.7920  -23.3580  -23.5760 O.2     1  UNL1       -0.2663
     19 C           3.7730  -27.7680  -24.8090 C.ar    1  UNL1        0.0612
     20 C           4.2250  -27.4310  -23.5430 C.ar    1  UNL1        0.1237
     21 N           4.9600  -26.3190  -23.5600 N.ar    1  UNL1       -0.1620
     22 N           4.9880  -25.9330  -24.8660 N.ar    1  UNL1       -0.2076
     23 C           9.8640  -23.0580  -23.9030 C.ar    1  UNL1        0.1382
     24 N          10.4140  -22.1910  -23.0500 N.ar    1  UNL1       -0.1662
@<TRIPOS>BOND
     1     3     1    1
     2     4     3   ar
     3     6     4   ar
     4     7     6    1
     5     8     7   ar
     6     9     8   ar
     7     9     5   ar
     8    10     5   ar
     9    11    10   ar
    10    11     7   ar
    11    13     1   am
    12    14    13    1
    13    15     6   ar
    14    15     2   ar
    15    16    12    1
    16    17    14   ar
    17    17    12   ar
    18    18     1    2
    19    19     2   ar
    20    20    19   ar
    21    21    20   ar
    22    22    21   ar
    23    22     2   ar
    24    22     3   ar
    25    23    14   ar
    26    24    23   ar
    27    24    12   ar
