@<TRIPOS>MOLECULE
9UAU_A1EOM_A301
 53 55 0 0 0
SMALL
GASTEIGER

@<TRIPOS>ATOM
      1 N           6.7420  -22.3470  -23.4470 N.ar    1  UNL1       -0.1964
      2 C           7.1810  -21.4840  -22.5750 C.ar    1  UNL1        0.1486
      3 C           4.8820  -21.0640  -22.1980 C.3     1  UNL1        0.0586
      4 C           6.6380  -19.8890  -20.9440 C.ar    1  UNL1        0.2704
      5 C           8.4300  -18.6920  -19.6980 C.1     1  UNL1        0.1046
      6 C           8.9240  -20.3790  -21.4800 C.ar    1  UNL1       -0.0270
      7 C           9.3840  -22.0390  -23.1840 C.ar    1  UNL1        0.0419
      8 C           3.9370  -25.8600  -26.2130 C.3     1  UNL1        0.0218
      9 C           1.1550  -27.1210  -24.7370 C.3     1  UNL1        0.0707
     10 C           4.2360  -26.2460  -23.7830 C.3     1  UNL1        0.0218
     11 C           5.6130  -25.5720  -23.7900 C.3     1  UNL1       -0.0200
     12 C           5.6970  -24.5630  -24.9390 C.3     1  UNL1        0.0257
     13 C           7.5920  -23.0780  -24.1960 C.ar    1  UNL1        0.2173
     14 C           3.9930  -21.4140  -21.0620 C.3     1  UNL1        0.0827
     15 C           3.2110  -23.8190  -21.1490 C.cat   1  UNL1        0.3763
     16 C           7.9950  -19.6950  -20.7460 C.ar    1  UNL1        0.1168
     17 C           8.5190  -21.2990  -22.4060 C.ar    1  UNL1        0.0372
     18 C           5.3270  -25.2640  -26.2470 C.3     1  UNL1       -0.0200
     19 N           3.8870  -26.7590  -25.0920 N.3     1  UNL1       -0.1813
     20 N           7.0320  -24.0210  -25.1310 N.pl3   1  UNL1       -0.3105
     21 N           6.2590  -20.7990  -21.8580 N.ar    1  UNL1       -0.2886
     22 N           4.1300  -22.7920  -20.7040 N.pl3   1  UNL1       -0.2744
     23 N           3.4390  -25.1340  -20.6340 N.pl3   1  UNL1       -0.2893
     24 N           2.2490  -23.6430  -21.9410 N.pl3   1  UNL1       -0.1298
     25 N           8.7110  -17.9280  -18.9130 N.1     1  UNL1       -0.1907
     26 N           8.9180  -22.9250  -24.0650 N.ar    1  UNL1       -0.2222
     27 O           2.6790  -28.5610  -26.4430 O.2     1  UNL1       -0.1583
     28 O           3.0110  -28.9820  -24.1390 O.2     1  UNL1       -0.1583
     29 O           5.8000  -19.2820  -20.3280 O.2     1  UNL1       -0.2662
     30 S           2.7150  -27.9470  -25.1360 S.O2    1  UNL1        0.0290
     31 H           4.8670  -21.8020  -22.8270 H       1  UNL1        0.0524
     32 H           4.5220  -20.2700  -22.6230 H       1  UNL1        0.0524
     33 H           9.8300  -20.2180  -21.3480 H       1  UNL1        0.0640
     34 H          10.3010  -21.9190  -23.0930 H       1  UNL1        0.0838
     35 H           3.7640  -26.3450  -27.0350 H       1  UNL1        0.0444
     36 H           3.2770  -25.1580  -26.1040 H       1  UNL1        0.0444
     37 H           0.8000  -26.6980  -25.5350 H       1  UNL1        0.0479
     38 H           1.3110  -26.4480  -24.0570 H       1  UNL1        0.0479
     39 H           0.5190  -27.7740  -24.4060 H       1  UNL1        0.0479
     40 H           4.2480  -26.9820  -23.1510 H       1  UNL1        0.0444
     41 H           3.5690  -25.5960  -23.5130 H       1  UNL1        0.0444
     42 H           5.7490  -25.1100  -22.9480 H       1  UNL1        0.0296
     43 H           6.3000  -26.2480  -23.9070 H       1  UNL1        0.0296
     44 H           5.0940  -23.8400  -24.7100 H       1  UNL1        0.0499
     45 H           3.0720  -21.2440  -21.3160 H       1  UNL1        0.0673
     46 H           4.2250  -20.8650  -20.2970 H       1  UNL1        0.0673
     47 H           5.3690  -24.6170  -26.9690 H       1  UNL1        0.0296
     48 H           5.9650  -25.9760  -26.4090 H       1  UNL1        0.0296
     49 H           7.4940  -24.2670  -25.8130 H       1  UNL1        0.1492
     50 H           4.7900  -23.0210  -20.2010 H       1  UNL1        0.2579
     51 H           2.9330  -25.7840  -20.8880 H       1  UNL1        0.2546
     52 H           4.1050  -25.2850  -20.1130 H       1  UNL1        0.2546
     53 H           2.0620  -22.8360  -22.2560 H       1  UNL1        0.3062
@<TRIPOS>BOND
     1     2     1   ar
     2    11    10    1
     3    12    11    1
     4    13     1   ar
     5    14     3    1
     6    16     6   ar
     7    16     5    1
     8    16     4   ar
     9    17     7   ar
    10    17     2   ar
    11    17     6   ar
    12    18     8    1
    13    18    12    1
    14    19    10    1
    15    19     8    1
    16    20    13    1
    17    20    12    1
    18    21     3    1
    19    21     2   ar
    20    21     4   ar
    21    22    15    1
    22    22    14    1
    23    23    15    1
    24    24    15    2
    25    25     5    3
    26    26    13   ar
    27    26     7   ar
    28    29     4    2
    29    30    28    2
    30    30    27    2
    31    30    19    1
    32    30     9    1
    33     3    31    1
    34    32     3    1
    35    33     6    1
    36    34     7    1
    37     8    35    1
    38    36     8    1
    39     9    37    1
    40    38     9    1
    41    39     9    1
    42    10    40    1
    43    41    10    1
    44    11    42    1
    45    43    11    1
    46    12    44    1
    47    14    45    1
    48    46    14    1
    49    18    47    1
    50    48    18    1
    51    49    20    1
    52    50    22    1
    53    51    23    1
    54    52    23    1
    55    53    24    1
