@<TRIPOS>MOLECULE
9UGF_A1EO5_A301
 80 85 0 0 0
SMALL
GASTEIGER

@<TRIPOS>ATOM
      1  C10        1.4090  -27.9130  -25.0530 C.3   301  A1E301      0.0707
      2  C13        4.3690  -26.5970  -23.9540 C.3   301  A1E301      0.0218
      3  C20        2.5820  -21.8520  -21.9790 C.3   301  A1E301      0.0012
      4  C22        1.4060  -22.7480  -20.2920 C.3   301  A1E301      0.0445
      5  C28       -3.4790  -23.5090  -22.4350 C.3   301  A1E301      0.0707
      6  C01        9.6990  -22.0690  -23.6830 C.ar  301  A1E301      0.0418
      7  C03        7.7660  -23.5930  -24.3290 C.ar  301  A1E301      0.2173
      8  C05        6.1650  -25.5830  -25.0940 C.3   301  A1E301      0.0257
      9  C06        5.3810  -25.2670  -26.2740 C.3   301  A1E301     -0.0200
     10  C07        4.2590  -26.2650  -26.4860 C.3   301  A1E301      0.0218
     11  C14        5.4650  -25.5670  -23.8280 C.3   301  A1E301     -0.0200
     12  C16        7.3620  -21.7840  -22.6770 C.ar  301  A1E301      0.1487
     13  C18        4.9240  -21.6660  -21.7390 C.3   301  A1E301      0.0416
     14  C19        3.8490  -21.0050  -22.3580 C.3   301  A1E301     -0.0191
     15  C23        0.1140  -22.1220  -20.8270 C.ar  301  A1E301      0.0968
     16  C27       -3.0380  -22.0480  -22.5680 C.3   301  A1E301      0.1022
     17  C30       -2.8010  -21.7040  -24.0380 C.ar  301  A1E301     -0.0209
     18  C31       -3.4550  -20.4670  -24.6430 C.ar  301  A1E301     -0.0565
     19  C32       -3.2080  -20.1290  -26.1090 C.ar  301  A1E301     -0.0614
     20  C33       -2.3100  -21.0230  -26.9660 C.ar  301  A1E301     -0.0617
     21  C34       -1.6540  -22.2510  -26.3580 C.ar  301  A1E301     -0.0614
     22  C35       -1.9000  -22.5870  -24.8940 C.ar  301  A1E301     -0.0565
     23  C36       -0.8940  -22.7440  -21.5500 C.ar  301  A1E301      0.0507
     24  C37        3.5090  -22.4730  -19.8220 C.3   301  A1E301      0.0012
     25  C38        4.7340  -21.7990  -20.2570 C.3   301  A1E301     -0.0191
     26  C39        6.8780  -19.9260  -20.9810 C.ar  301  A1E301      0.2531
     27  C41        8.3150  -19.4690  -21.0740 C.ar  301  A1E301      0.0037
     28  C42        9.2560  -20.1570  -21.9680 C.ar  301  A1E301     -0.0445
     29  C43        8.7600  -21.3400  -22.7790 C.ar  301  A1E301      0.0360
     30  N02        9.1870  -23.1890  -24.4340 N.ar  301  A1E301     -0.2222
     31  N04        7.3780  -24.6700  -25.1650 N.pl3 301  A1E301     -0.3105
     32  N08        4.2040  -27.2760  -25.3220 N.3   301  A1E301     -0.1813
     33  N15        6.8330  -22.8840  -23.4530 N.ar  301  A1E301     -0.1964
     34  N17        6.3880  -21.0810  -21.7820 N.ar  301  A1E301     -0.2895
     35  N21        2.3230  -22.0100  -20.4980 N.3   301  A1E301     -0.2964
     36  N24       -0.1870  -20.8430  -20.7290 N.ar  301  A1E301     -0.1332
     37  N25       -1.3850  -20.6410  -21.3400 N.ar  301  A1E301     -0.0648
     38  N26       -1.8070  -21.8310  -21.8360 N.ar  301  A1E301     -0.2418
     39  O11        3.4620  -29.6010  -24.5710 O.2   301  A1E301     -0.1583
     40  O12        3.1450  -29.0190  -26.8300 O.2   301  A1E301     -0.1583
     41  O29       -4.8460  -23.6260  -22.7300 O.3   301  A1E301     -0.3926
     42  O40        6.1550  -19.3560  -20.2610 O.2   301  A1E301     -0.2676
     43  S09        3.0730  -28.5080  -25.4680 S.O2  301  A1E301      0.0290
     44 H103        1.4420  -27.3720  -24.1120 H     301  A1E301      0.0479
     45 H102        0.7350  -28.7580  -24.9620 H     301  A1E301      0.0479
     46 H101        1.0560  -27.2500  -25.8390 H     301  A1E301      0.0479
     47 H132        3.4300  -26.1090  -23.7120 H     301  A1E301      0.0444
     48 H131        4.5640  -27.3750  -23.2230 H     301  A1E301      0.0444
     49 H201        2.6950  -22.8390  -22.4100 H     301  A1E301      0.0427
     50 H202        1.7150  -21.3790  -22.4240 H     301  A1E301      0.0427
     51 H222        1.3100  -22.9170  -19.2240 H     301  A1E301      0.0492
     52 H221        1.5830  -23.6950  -20.7940 H     301  A1E301      0.0492
     53 H281       -3.2990  -23.8480  -21.4190 H     301  A1E301      0.0582
     54 H282       -2.9080  -24.1210  -23.1260 H     301  A1E301      0.0582
     55 H011       10.7340  -21.7650  -23.7720 H     301  A1E301      0.0838
     56 H051        6.4980  -26.6140  -25.1170 H     301  A1E301      0.0499
     57 H061        6.0300  -25.2770  -27.1410 H     301  A1E301      0.0296
     58 H062        4.9550  -24.2770  -26.1590 H     301  A1E301      0.0296
     59 H072        4.4270  -26.7980  -27.4160 H     301  A1E301      0.0444
     60 H071        3.3150  -25.7340  -26.5450 H     301  A1E301      0.0444
     61 H141        5.0450  -24.5850  -23.6390 H     301  A1E301      0.0296
     62 H142        6.1400  -25.8270  -23.0190 H     301  A1E301      0.0296
     63 H181        4.9240  -22.5520  -22.3640 H     301  A1E301      0.0530
     64 H191        3.9840  -20.9790  -23.4300 H     301  A1E301      0.0298
     65 H192        3.7580  -19.9950  -21.9860 H     301  A1E301      0.0298
     66 H271       -3.8220  -21.4150  -22.1650 H     301  A1E301      0.0618
     67 H311       -4.0900  -19.8330  -24.0360 H     301  A1E301      0.0621
     68 H321       -3.6710  -19.2530  -26.5460 H     301  A1E301      0.0618
     69 H331       -2.1420  -20.7800  -28.0080 H     301  A1E301      0.0618
     70 H341       -1.0150  -22.8840  -26.9620 H     301  A1E301      0.0618
     71 H351       -1.4300  -23.4590  -24.4560 H     301  A1E301      0.0621
     72 H361       -0.9260  -23.7910  -21.8280 H     301  A1E301      0.0846
     73 H372        3.3860  -22.3060  -18.7580 H     301  A1E301      0.0427
     74 H371        3.6180  -23.5350  -20.0050 H     301  A1E301      0.0427
     75 H381        4.7270  -20.7990  -19.8360 H     301  A1E301      0.0298
     76 H382        5.5750  -22.3620  -19.8670 H     301  A1E301      0.0298
     77 H411        8.6530  -18.6300  -20.4790 H     301  A1E301      0.0672
     78 H421       10.2850  -19.8270  -22.0470 H     301  A1E301      0.0627
     79 H041        8.0030  -24.8600  -25.9240 H     301  A1E301      0.1492
     80 H291       -5.1700  -22.8050  -23.0760 H     301  A1E301      0.2095
@<TRIPOS>BOND
     1    69    20    1
     2    59    10    1
     3    57     9    1
     4    20    21   ar
     5    20    19   ar
     6    70    21    1
     7    40    43    2
     8    68    19    1
     9    60    10    1
    10    10     9    1
    11    10    32    1
    12    21    22   ar
    13     9    58    1
    14     9     8    1
    15    19    18   ar
    16    79    31    1
    17    46     1    1
    18    43    32    1
    19    43     1    1
    20    43    39    2
    21    32     2    1
    22    31     8    1
    23    31     7    1
    24    56     8    1
    25     8    11    1
    26     1    45    1
    27     1    44    1
    28    22    71    1
    29    22    17   ar
    30    18    17   ar
    31    18    67    1
    32    30     7   ar
    33    30     6   ar
    34     7    33   ar
    35    17    16    1
    36     2    11    1
    37     2    47    1
    38     2    48    1
    39    11    61    1
    40    11    62    1
    41    55     6    1
    42     6    29   ar
    43    33    12   ar
    44    64    14    1
    45    54     5    1
    46    80    41    1
    47    29    12   ar
    48    29    28   ar
    49    41     5    1
    50    12    34   ar
    51    16     5    1
    52    16    66    1
    53    16    38    1
    54     5    53    1
    55    50     3    1
    56    49     3    1
    57    63    13    1
    58    14    65    1
    59    14     3    1
    60    14    13    1
    61    78    28    1
    62     3    35    1
    63    28    27   ar
    64    38    23   ar
    65    38    37   ar
    66    72    23    1
    67    34    13    1
    68    34    26   ar
    69    13    25    1
    70    23    15   ar
    71    37    36   ar
    72    27    26   ar
    73    27    77    1
    74    26    42    2
    75    15    36   ar
    76    15     4    1
    77    52     4    1
    78    35     4    1
    79    35    24    1
    80     4    51    1
    81    25    76    1
    82    25    75    1
    83    25    24    1
    84    74    24    1
    85    24    73    1
