@<TRIPOS>MOLECULE
6A96_ABU_B501
 7 6 0 0 0
SMALL
GASTEIGER

@<TRIPOS>ATOM
      1 N         220.8400  185.0900  246.4020 N.3     1  UNL1       -0.1314
      2 C         221.2330  186.3630  246.9770 C.3     1  UNL1        0.1099
      3 C         222.7520  186.4230  247.0860 C.3     1  UNL1        0.0323
      4 C         223.2380  187.8650  247.1550 C.3     1  UNL1        0.1156
      5 C         224.6620  187.9410  246.6610 C.2     1  UNL1        0.3649
      6 O         225.1820  186.9120  246.1780 O.co2   1  UNL1       -0.2457
      7 O         225.2690  189.0300  246.7550 O.co2   1  UNL1       -0.2457
@<TRIPOS>BOND
     1     2     1    1
     2     3     2    1
     3     4     3    1
     4     5     4    1
     5     6     5   ar
     6     7     5   ar
