@<TRIPOS>MOLECULE
6D6T_ABU_A405
 7 6 0 0 0
SMALL
GASTEIGER

@<TRIPOS>ATOM
      1 N         187.6780  225.1510  244.2690 N.3     1  UNL1       -0.1314
      2 C         187.9040  223.8390  244.8470 C.3     1  UNL1        0.1099
      3 C         186.6660  222.9680  244.6660 C.3     1  UNL1        0.0323
      4 C         186.9570  221.5020  244.9630 C.3     1  UNL1        0.1156
      5 C         185.7180  220.6330  244.7810 C.2     1  UNL1        0.3649
      6 O         184.8850  220.5320  245.7160 O.co2   1  UNL1       -0.2457
      7 O         185.5290  220.0220  243.7000 O.co2   1  UNL1       -0.2457
@<TRIPOS>BOND
     1     2     1    1
     2     3     2    1
     3     4     3    1
     4     5     4    1
     5     6     5   ar
     6     7     5   ar
