@<TRIPOS>MOLECULE
6HUO_08H_D501
 22 25 0 0 0
SMALL
GASTEIGER

@<TRIPOS>ATOM
      1 C         236.9130  215.0980  239.9830 C.ar    1  UNL1        0.0343
      2 C         235.9330  214.2020  239.5570 C.ar    1  UNL1        0.0143
      3 C         235.9140  213.7780  238.2470 C.ar    1  UNL1        0.0578
      4 CL        234.6720  212.6720  237.7360 Cl      1  UNL1       -0.0822
      5 C         236.8440  214.2120  237.3330 C.ar    1  UNL1        0.0129
      6 C         237.8220  215.1030  237.7370 C.ar    1  UNL1        0.0185
      7 C         237.8630  215.5520  239.0520 C.ar    1  UNL1        0.0677
      8 N         238.8640  216.5030  239.4280 N.ar    1  UNL1       -0.2791
      9 C         240.1910  216.6020  239.0690 C.ar    1  UNL1        0.1473
     10 C         240.8940  215.6520  238.1720 C.3     1  UNL1        0.0742
     11 N         240.7150  217.6590  239.6370 N.ar    1  UNL1       -0.1333
     12 N         239.7210  218.2810  240.3930 N.ar    1  UNL1       -0.1312
     13 C         238.6310  217.5700  240.2510 C.ar    1  UNL1        0.1717
     14 C         237.2990  217.7790  240.8590 C.3     1  UNL1        0.1911
     15 N         237.0760  216.7130  241.8440 N.2     1  UNL1       -0.2621
     16 C         236.9150  215.5170  241.4140 C.2     1  UNL1        0.0779
     17 C         236.6850  214.4590  242.4370 C.ar    1  UNL1        0.0173
     18 C         237.3350  213.2350  242.3480 C.ar    1  UNL1        0.0015
     19 C         237.1090  212.2510  243.2950 C.ar    1  UNL1        0.0000
     20 C         236.2360  212.4760  244.3360 C.ar    1  UNL1        0.0000
     21 C         235.5870  213.6880  244.4360 C.ar    1  UNL1        0.0000
     22 C         235.8090  214.6780  243.4930 C.ar    1  UNL1        0.0015
@<TRIPOS>BOND
     1     2     1   ar
     2     3     2   ar
     3     4     3    1
     4     5     3   ar
     5     6     5   ar
     6     7     6   ar
     7     7     1   ar
     8     8     7    1
     9     9     8   ar
    10    10     9    1
    11    11     9   ar
    12    12    11   ar
    13    13     8   ar
    14    13    12   ar
    15    14    13    1
    16    15    14    1
    17    16    15    2
    18    16     1    1
    19    17    16    1
    20    18    17   ar
    21    19    18   ar
    22    20    19   ar
    23    21    20   ar
    24    22    21   ar
    25    22    17   ar
