@<TRIPOS>MOLECULE
6X3T_ABU_C405
 7 6 0 0 0
SMALL
GASTEIGER

@<TRIPOS>ATOM
      1 N         220.4370  187.7490  244.5700 N.3     1  UNL1       -0.1314
      2 C         221.1570  189.0170  244.4040 C.3     1  UNL1        0.1099
      3 C         222.5380  188.9230  245.0520 C.3     1  UNL1        0.0323
      4 C         223.2450  190.2720  244.9330 C.3     1  UNL1        0.1156
      5 C         224.7350  190.0820  244.8280 C.2     1  UNL1        0.3649
      6 O         225.1920  189.0320  244.4540 O.co2   1  UNL1       -0.2457
      7 O         225.5630  191.0810  245.1480 O.co2   1  UNL1       -0.2457
@<TRIPOS>BOND
     1     2     1    1
     2     3     2    1
     3     4     3    1
     4     5     4    1
     5     6     5   ar
     6     7     5   ar
