@<TRIPOS>MOLECULE
6X3W_ABU_A405
 7 6 0 0 0
SMALL
GASTEIGER

@<TRIPOS>ATOM
      1 N         189.7630  224.2130  242.6830 N.3     1  UNL1       -0.1314
      2 C         189.2050  223.6650  243.9190 C.3     1  UNL1        0.1099
      3 C         188.0340  222.7780  243.5220 C.3     1  UNL1        0.0323
      4 C         187.6780  221.8420  244.6680 C.3     1  UNL1        0.1156
      5 C         186.6590  220.8570  244.1700 C.2     1  UNL1        0.3649
      6 O         186.1780  220.9630  243.0700 O.co2   1  UNL1       -0.2457
      7 O         186.2170  219.8990  244.9840 O.co2   1  UNL1       -0.2457
@<TRIPOS>BOND
     1     2     1    1
     2     3     2    1
     3     4     3    1
     4     5     4    1
     5     6     5   ar
     6     7     5   ar
