@<TRIPOS>MOLECULE
7PBD_ABU_D501
 7 6 0 0 0
SMALL
GASTEIGER

@<TRIPOS>ATOM
      1 N         189.3870  223.9480  244.2150 N.3     1  UNL1       -0.1314
      2 C         188.7440  223.0870  245.1890 C.3     1  UNL1        0.1099
      3 C         187.6310  222.2910  244.5170 C.3     1  UNL1        0.0323
      4 C         187.0420  221.3070  245.5230 C.3     1  UNL1        0.1156
      5 C         185.8410  220.5990  244.9000 C.2     1  UNL1        0.3649
      6 O         184.6850  221.0690  245.0590 O.co2   1  UNL1       -0.2457
      7 O         186.0040  219.5490  244.2270 O.co2   1  UNL1       -0.2457
@<TRIPOS>BOND
     1     2     1    1
     2     3     2    1
     3     4     3    1
     4     5     4    1
     5     6     5   ar
     6     7     5   ar
