@<TRIPOS>MOLECULE
7PBZ_ABU_B501
 7 6 0 0 0
SMALL
GASTEIGER

@<TRIPOS>ATOM
      1 N         235.2180  212.8090  244.7730 N.3     1  UNL1       -0.1314
      2 C         235.8890  213.0950  246.0260 C.3     1  UNL1        0.1099
      3 C         235.3900  214.4270  246.5760 C.3     1  UNL1        0.0323
      4 C         235.6660  215.5290  245.5600 C.3     1  UNL1        0.1156
      5 C         235.5650  216.8860  246.2500 C.2     1  UNL1        0.3649
      6 O         236.5960  217.4470  246.6990 O.co2   1  UNL1       -0.2457
      7 O         234.4450  217.4400  246.3660 O.co2   1  UNL1       -0.2457
@<TRIPOS>BOND
     1     2     1    1
     2     3     2    1
     3     4     3    1
     4     5     4    1
     5     6     5   ar
     6     7     5   ar
