@<TRIPOS>MOLECULE
7QN7_HSM_C503
 8 8 0 0 0
SMALL
GASTEIGER

@<TRIPOS>ATOM
      1 N         215.8310  234.3100  243.7370 N.3     1  UNL1       -0.1310
      2 C         214.8590  235.3860  243.5350 C.3     1  UNL1        0.1156
      3 C         213.6330  234.8090  242.8090 C.3     1  UNL1        0.0679
      4 C         212.6020  235.8510  242.5150 C.ar    1  UNL1        0.0813
      5 N         211.9440  236.5290  243.5250 N.ar    1  UNL1       -0.2268
      6 C         212.1500  236.2950  241.3120 C.ar    1  UNL1        0.1154
      7 C         211.1190  237.3600  242.9070 C.ar    1  UNL1        0.1986
      8 N         211.2100  237.2520  241.5770 N.ar    1  UNL1       -0.2212
@<TRIPOS>BOND
     1     2     1    1
     2     3     2    1
     3     4     3    1
     4     5     4   ar
     5     6     4   ar
     6     7     5   ar
     7     8     7   ar
     8     8     6   ar
