@<TRIPOS>MOLECULE
7QN8_HSM_B501
 8 8 0 0 0
SMALL
GASTEIGER

@<TRIPOS>ATOM
      1 N         220.9690  188.5320  244.1360 N.3     1  UNL1       -0.1310
      2 C         222.4290  188.4950  244.2540 C.3     1  UNL1        0.1156
      3 C         223.0340  188.6780  242.8510 C.3     1  UNL1        0.0679
      4 C         224.5250  188.5570  242.8530 C.ar    1  UNL1        0.0813
      5 N         225.2060  187.9800  243.9080 N.ar    1  UNL1       -0.2268
      6 C         225.4180  188.9440  241.9040 C.ar    1  UNL1        0.1154
      7 C         226.4840  188.0340  243.5680 C.ar    1  UNL1        0.1986
      8 N         226.6560  188.6060  242.3720 N.ar    1  UNL1       -0.2212
@<TRIPOS>BOND
     1     2     1    1
     2     3     2    1
     3     4     3    1
     4     5     4   ar
     5     6     4   ar
     6     7     5   ar
     7     8     7   ar
     8     8     6   ar
