@<TRIPOS>MOLECULE
7QNC_HSM_C503
 8 8 0 0 0
SMALL
GASTEIGER

@<TRIPOS>ATOM
      1 N         215.9910  234.3200  243.7930 N.3     1  UNL1       -0.1310
      2 C         215.0680  235.1980  243.0720 C.3     1  UNL1        0.1156
      3 C         213.6520  234.9850  243.6320 C.3     1  UNL1        0.0679
      4 C         212.6350  235.8500  242.9570 C.ar    1  UNL1        0.0813
      5 N         211.5210  236.3200  243.6260 N.ar    1  UNL1       -0.2268
      6 C         212.6100  236.3030  241.6760 C.ar    1  UNL1        0.1154
      7 C         210.8590  237.0410  242.7350 C.ar    1  UNL1        0.1986
      8 N         211.4770  237.0560  241.5500 N.ar    1  UNL1       -0.2212
@<TRIPOS>BOND
     1     2     1    1
     2     3     2    1
     3     4     3    1
     4     5     4   ar
     5     6     4   ar
     6     7     5   ar
     7     8     7   ar
     8     8     6   ar
