@<TRIPOS>MOLECULE
7QNE_EIE_D502
 24 26 0 0 0
SMALL
GASTEIGER

@<TRIPOS>ATOM
      1 N         238.0250  210.8150  242.6740 N.2     1  UNL1        0.1168
      2 C         237.1600  215.3630  241.2190 C.2     1  UNL1        0.2508
      3 C         236.9900  214.3540  242.3100 C.ar    1  UNL1        0.0714
      4 N         237.5350  209.8600  243.3750 N.2     1  UNL1       -0.0090
      5 C         237.5510  213.1030  242.0620 C.ar    1  UNL1        0.0321
      6 O         236.2970  219.8710  242.9710 O.3     1  UNL1       -0.4444
      7 C         236.5850  221.2980  242.9170 C.3     1  UNL1        0.2089
      8 C         237.6520  217.0440  242.9480 C.3     1  UNL1        0.1397
      9 C         237.6370  217.6340  240.5210 C.3     1  UNL1        0.1156
     10 N         237.2440  208.8850  243.8820 N.2     1  UNL1       -0.3278
     11 C         236.3270  217.0240  243.6010 C.ar    1  UNL1        0.0868
     12 C         235.4580  217.9750  244.0650 C.ar    1  UNL1        0.1719
     13 C         235.5030  221.9640  242.1880 C.3     1  UNL1        0.0513
     14 N         235.7200  215.8150  243.8470 N.ar    1  UNL1       -0.2895
     15 N         237.4700  216.6290  241.5610 N.am    1  UNL1       -0.2686
     16 C         235.6480  219.4440  244.0550 C.2     1  UNL1        0.3604
     17 O         235.2770  220.1770  244.9340 O.2     1  UNL1       -0.2431
     18 C         237.4260  212.0680  242.9790 C.ar    1  UNL1        0.1643
     19 C         236.7300  212.2820  244.1600 C.ar    1  UNL1        0.0276
     20 C         236.1690  213.5160  244.4310 C.ar    1  UNL1        0.0195
     21 C         236.2970  214.5550  243.5150 C.ar    1  UNL1        0.0697
     22 C         234.5200  216.0950  244.4430 C.ar    1  UNL1        0.1828
     23 N         234.3220  217.3800  244.5920 N.ar    1  UNL1       -0.2173
     24 O         237.0240  215.0270  240.0570 O.2     1  UNL1       -0.2698
@<TRIPOS>UNITY_ATOM_ATTR
4 1
charge 1
10 1
charge -1
@<TRIPOS>BOND
     1     3     2    1
     2     4     1    2
     3     5     3   ar
     4     7     6    1
     5    10     4    2
     6    11     8    1
     7    12    11   ar
     8    13     7    1
     9    14    11   ar
    10    15     9    1
    11    15     8    1
    12    15     2   am
    13    16    12    1
    14    16     6    1
    15    17    16    2
    16    18     1    1
    17    18     5   ar
    18    19    18   ar
    19    20    19   ar
    20    21    20   ar
    21    21    14    1
    22    21     3   ar
    23    22    14   ar
    24    23    22   ar
    25    23    12   ar
    26    24     2    2
