@<TRIPOS>MOLECULE
8VQY_ABU_A401
 7 6 0 0 0
SMALL
GASTEIGER

@<TRIPOS>ATOM
      1 N         189.4490  224.5010  243.6600 N.3     1  UNL1       -0.1314
      2 C         188.3220  224.0020  244.4210 C.3     1  UNL1        0.1099
      3 C         188.1250  222.5230  244.1130 C.3     1  UNL1        0.0323
      4 C         186.7950  222.0710  244.7020 C.3     1  UNL1        0.1156
      5 C         186.4890  220.6540  244.2320 C.2     1  UNL1        0.3649
      6 O         187.3030  220.0530  243.4840 O.co2   1  UNL1       -0.2457
      7 O         185.4260  220.0860  244.5920 O.co2   1  UNL1       -0.2457
@<TRIPOS>BOND
     1     2     1    1
     2     3     2    1
     3     4     3    1
     4     5     4    1
     5     6     5   ar
     6     7     5   ar
