@<TRIPOS>MOLECULE
9CRS_ABU_C501
 7 6 0 0 0
SMALL
GASTEIGER

@<TRIPOS>ATOM
      1 N         220.0310  187.5160  244.5500 N.3     1  UNL1       -0.1314
      2 C         220.9510  188.6190  244.1780 C.3     1  UNL1        0.1099
      3 C         222.2010  188.5990  245.0160 C.3     1  UNL1        0.0323
      4 C         223.1840  189.6660  244.5640 C.3     1  UNL1        0.1156
      5 C         224.5220  189.6260  245.2720 C.2     1  UNL1        0.3649
      6 O         224.9420  188.5240  245.6800 O.co2   1  UNL1       -0.2457
      7 O         225.1330  190.7120  245.4050 O.co2   1  UNL1       -0.2457
@<TRIPOS>BOND
     1     2     1    1
     2     3     2    1
     3     4     3    1
     4     5     4    1
     5     6     5   ar
     6     7     5   ar
