@<TRIPOS>MOLECULE
9CXB_ABU_A501
 7 6 0 0 0
SMALL
GASTEIGER

@<TRIPOS>ATOM
      1 N         188.9880  225.0360  243.7200 N.3     1  UNL1       -0.1314
      2 C         188.9040  223.5720  243.4980 C.3     1  UNL1        0.1099
      3 C         187.7670  222.9610  244.2710 C.3     1  UNL1        0.0323
      4 C         187.6500  221.4690  243.9940 C.3     1  UNL1        0.1156
      5 C         186.4580  220.8050  244.6540 C.2     1  UNL1        0.3649
      6 O         185.6050  220.2600  243.9240 O.co2   1  UNL1       -0.2457
      7 O         186.4030  220.8420  245.9060 O.co2   1  UNL1       -0.2457
@<TRIPOS>BOND
     1     2     1    1
     2     3     2    1
     3     4     3    1
     4     5     4    1
     5     6     5   ar
     6     7     5   ar
