@<TRIPOS>MOLECULE
9CXD_ABU_A501
 7 6 0 0 0
SMALL
GASTEIGER

@<TRIPOS>ATOM
      1 N         219.0300  186.8410  244.8930 N.3     1  UNL1       -0.1314
      2 C         220.2840  187.4080  244.3400 C.3     1  UNL1        0.1099
      3 C         221.3060  187.6740  245.4150 C.3     1  UNL1        0.0323
      4 C         222.5630  188.2860  244.8200 C.3     1  UNL1        0.1156
      5 C         223.7430  188.4190  245.7590 C.2     1  UNL1        0.3649
      6 O         224.8700  188.0750  245.3480 O.co2   1  UNL1       -0.2457
      7 O         223.5160  188.8680  246.9040 O.co2   1  UNL1       -0.2457
@<TRIPOS>BOND
     1     2     1    1
     2     3     2    1
     3     4     3    1
     4     5     4    1
     5     6     5   ar
     6     7     5   ar
