@<TRIPOS>MOLECULE
9FAK_ABU_B1601
 7 6 0 0 0
SMALL
GASTEIGER

@<TRIPOS>ATOM
      1 N         189.0810  224.7800  243.8700 N.3     1  UNL1       -0.1314
      2 C         189.1500  223.3400  244.0260 C.3     1  UNL1        0.1099
      3 C         187.7360  222.7770  244.0730 C.3     1  UNL1        0.0323
      4 C         187.7710  221.3060  244.4710 C.3     1  UNL1        0.1156
      5 C         186.3450  220.7690  244.5140 C.2     1  UNL1        0.3649
      6 O         185.4830  221.1940  243.7060 O.co2   1  UNL1       -0.2457
      7 O         186.0220  219.9040  245.3630 O.co2   1  UNL1       -0.2457
@<TRIPOS>BOND
     1     2     1    1
     2     3     2    1
     3     4     3    1
     4     5     4    1
     5     6     5   ar
     6     7     5   ar
