@<TRIPOS>MOLECULE
9FEX_HSM_A502
 8 8 0 0 0
SMALL
GASTEIGER

@<TRIPOS>ATOM
      1 N         219.8170  186.8080  245.2390 N.3     1  UNL1       -0.1310
      2 C         220.6800  187.3020  246.3410 C.3     1  UNL1        0.1156
      3 C         221.4550  188.5320  245.9240 C.3     1  UNL1        0.0679
      4 C         222.5030  188.2580  244.8910 C.ar    1  UNL1        0.0813
      5 N         223.8150  188.6710  245.0550 N.ar    1  UNL1       -0.2268
      6 C         222.3840  187.6100  243.6990 C.ar    1  UNL1        0.1154
      7 C         224.4460  188.2640  243.9630 C.ar    1  UNL1        0.1986
      8 N         223.6240  187.6220  243.1220 N.ar    1  UNL1       -0.2212
@<TRIPOS>BOND
     1     2     1    1
     2     3     2    1
     3     4     3    1
     4     5     4   ar
     5     6     4   ar
     6     7     5   ar
     7     8     6   ar
     8     8     7   ar
