@<TRIPOS>MOLECULE
9FF2_HSM_E501
 8 8 0 0 0
SMALL
GASTEIGER

@<TRIPOS>ATOM
      1 N         190.9860  194.7390  245.5220 N.3     1  UNL1       -0.1310
      2 C         191.4070  193.8470  244.4130 C.3     1  UNL1        0.1156
      3 C         192.2840  192.7240  244.9150 C.3     1  UNL1        0.0679
      4 C         192.6970  191.7750  243.8360 C.ar    1  UNL1        0.0813
      5 N         193.6280  190.7730  244.0610 N.ar    1  UNL1       -0.2268
      6 C         192.2800  191.7140  242.5400 C.ar    1  UNL1        0.1154
      7 C         193.7450  190.1420  242.9020 C.ar    1  UNL1        0.1986
      8 N         192.9550  190.6740  241.9620 N.ar    1  UNL1       -0.2212
@<TRIPOS>BOND
     1     2     1    1
     2     3     2    1
     3     4     3    1
     4     5     4   ar
     5     6     4   ar
     6     7     5   ar
     7     8     7   ar
     8     8     6   ar
