@<TRIPOS>MOLECULE
9FFL_ABU_E501
 7 6 0 0 0
SMALL
GASTEIGER

@<TRIPOS>ATOM
      1 N         189.0880  224.9970  245.2030 N.3     1  UNL1       -0.1314
      2 C         189.0550  223.5160  245.1780 C.3     1  UNL1        0.1099
      3 C         187.6450  223.0000  245.1500 C.3     1  UNL1        0.0323
      4 C         187.6100  221.4810  245.1230 C.3     1  UNL1        0.1156
      5 C         186.2120  220.8990  245.1000 C.2     1  UNL1        0.3649
      6 O         186.1070  219.6510  245.0750 O.co2   1  UNL1       -0.2457
      7 O         185.2450  221.6850  245.1050 O.co2   1  UNL1       -0.2457
@<TRIPOS>BOND
     1     2     1    1
     2     3     2    1
     3     4     3    1
     4     5     4    1
     5     6     5   ar
     6     7     5   ar
