@<TRIPOS>MOLECULE
9FFO_ABU_B501
 7 6 0 0 0
SMALL
GASTEIGER

@<TRIPOS>ATOM
      1 N         188.9880  224.8210  244.5540 N.3     1  UNL1       -0.1314
      2 C         189.0140  223.3780  244.8960 C.3     1  UNL1        0.1099
      3 C         187.6320  222.7760  244.8680 C.3     1  UNL1        0.0323
      4 C         187.6740  221.2830  245.1650 C.3     1  UNL1        0.1156
      5 C         186.3150  220.6110  245.1830 C.2     1  UNL1        0.3649
      6 O         186.2640  219.4070  244.8350 O.co2   1  UNL1       -0.2457
      7 O         185.3280  221.2850  245.5420 O.co2   1  UNL1       -0.2457
@<TRIPOS>BOND
     1     2     1    1
     2     3     2    1
     3     4     3    1
     4     5     4    1
     5     6     5   ar
     6     7     5   ar
