@<TRIPOS>MOLECULE
9FFT_ABU_B501
 7 6 0 0 0
SMALL
GASTEIGER

@<TRIPOS>ATOM
      1 N         189.0080  224.5500  244.1960 N.3     1  UNL1       -0.1314
      2 C         188.8350  223.4130  245.1350 C.3     1  UNL1        0.1099
      3 C         187.5660  222.6470  244.8540 C.3     1  UNL1        0.0323
      4 C         187.4060  221.4690  245.8060 C.3     1  UNL1        0.1156
      5 C         186.2630  220.5340  245.4570 C.2     1  UNL1        0.3649
      6 O         186.5360  219.5250  244.7630 O.co2   1  UNL1       -0.2457
      7 O         185.1210  220.8140  245.8760 O.co2   1  UNL1       -0.2457
@<TRIPOS>BOND
     1     2     1    1
     2     3     2    1
     3     4     3    1
     4     5     4    1
     5     6     5   ar
     6     7     5   ar
