@<TRIPOS>MOLECULE
9FFU_ABU_B501
 7 6 0 0 0
SMALL
GASTEIGER

@<TRIPOS>ATOM
      1 N         188.4690  224.5430  245.1190 N.3     1  UNL1       -0.1314
      2 C         188.5240  223.0700  245.2750 C.3     1  UNL1        0.1099
      3 C         187.1440  222.4710  245.2990 C.3     1  UNL1        0.0323
      4 C         187.2010  220.9560  245.4360 C.3     1  UNL1        0.1156
      5 C         185.8620  220.2700  245.2600 C.2     1  UNL1        0.3649
      6 O         185.0350  220.7780  244.4760 O.co2   1  UNL1       -0.2457
      7 O         185.6580  219.2290  245.9190 O.co2   1  UNL1       -0.2457
@<TRIPOS>BOND
     1     2     1    1
     2     3     2    1
     3     4     3    1
     4     5     4    1
     5     6     5   ar
     6     7     5   ar
