@<TRIPOS>MOLECULE
9FFY_ABU_B501
 7 6 0 0 0
SMALL
GASTEIGER

@<TRIPOS>ATOM
      1 N         188.7880  225.1800  243.9720 N.3     1  UNL1       -0.1314
      2 C         188.9660  223.7100  244.0690 C.3     1  UNL1        0.1099
      3 C         187.6460  223.0100  244.2720 C.3     1  UNL1        0.0323
      4 C         187.8290  221.5030  244.3830 C.3     1  UNL1        0.1156
      5 C         186.5380  220.7340  244.5930 C.2     1  UNL1        0.3649
      6 O         185.4920  221.3820  244.8030 O.co2   1  UNL1       -0.2457
      7 O         186.6000  219.4810  244.5400 O.co2   1  UNL1       -0.2457
@<TRIPOS>BOND
     1     2     1    1
     2     3     2    1
     3     4     3    1
     4     5     4    1
     5     6     5   ar
     6     7     5   ar
