@<TRIPOS>MOLECULE
9FFZ_ABU_A501
 7 6 0 0 0
SMALL
GASTEIGER

@<TRIPOS>ATOM
      1 N         189.2450  224.6850  244.0290 N.3     1  UNL1       -0.1314
      2 C         188.2080  224.1530  244.9490 C.3     1  UNL1        0.1099
      3 C         187.8290  222.7370  244.5940 C.3     1  UNL1        0.0323
      4 C         186.7770  222.1880  245.5470 C.3     1  UNL1        0.1156
      5 C         186.3700  220.7540  245.2680 C.2     1  UNL1        0.3649
      6 O         185.4710  220.5460  244.4280 O.co2   1  UNL1       -0.2457
      7 O         186.9670  219.8540  245.9050 O.co2   1  UNL1       -0.2457
@<TRIPOS>BOND
     1     2     1    1
     2     3     2    1
     3     4     3    1
     4     5     4    1
     5     6     5   ar
     6     7     5   ar
