@<TRIPOS>MOLECULE
9FG0_ABU_B501
 7 6 0 0 0
SMALL
GASTEIGER

@<TRIPOS>ATOM
      1 N         188.4440  225.1020  243.9540 N.3     1  UNL1       -0.1314
      2 C         188.7180  223.6860  244.1580 C.3     1  UNL1        0.1099
      3 C         187.4490  222.9320  244.5200 C.3     1  UNL1        0.0323
      4 C         187.6820  221.4350  244.6300 C.3     1  UNL1        0.1156
      5 C         186.4160  220.5700  244.7410 C.2     1  UNL1        0.3649
      6 O         185.3140  221.1500  244.7470 O.co2   1  UNL1       -0.2457
      7 O         186.6030  219.3390  244.8150 O.co2   1  UNL1       -0.2457
@<TRIPOS>BOND
     1     2     1    1
     2     3     2    1
     3     4     3    1
     4     5     4    1
     5     6     5   ar
     6     7     5   ar
