@<TRIPOS>MOLECULE
9FG7_ABU_E501
 7 6 0 0 0
SMALL
GASTEIGER

@<TRIPOS>ATOM
      1 N         219.3200  187.4360  244.9640 N.3     1  UNL1       -0.1314
      2 C         220.1310  188.6780  244.9770 C.3     1  UNL1        0.1099
      3 C         221.6070  188.3820  245.0080 C.3     1  UNL1        0.0323
      4 C         222.4250  189.6630  245.0370 C.3     1  UNL1        0.1156
      5 C         223.9250  189.4510  245.0120 C.2     1  UNL1        0.3649
      6 O         224.3400  188.2690  244.9710 O.co2   1  UNL1       -0.2457
      7 O         224.6620  190.4570  245.0310 O.co2   1  UNL1       -0.2457
@<TRIPOS>BOND
     1     2     1    1
     2     3     2    1
     3     4     3    1
     4     5     4    1
     5     6     5   ar
     6     7     5   ar
