@<TRIPOS>MOLECULE
9FG8_ABU_B501
 7 6 0 0 0
SMALL
GASTEIGER

@<TRIPOS>ATOM
      1 N         189.8670  224.7110  243.0820 N.3     1  UNL1       -0.1314
      2 C         188.9590  224.1700  244.1230 C.3     1  UNL1        0.1099
      3 C         188.5110  222.7660  243.7980 C.3     1  UNL1        0.0323
      4 C         187.5710  222.2220  244.8630 C.3     1  UNL1        0.1156
      5 C         187.0420  220.8270  244.5810 C.2     1  UNL1        0.3649
      6 O         185.9020  220.7180  244.0830 O.co2   1  UNL1       -0.2457
      7 O         187.7880  219.8590  244.8680 O.co2   1  UNL1       -0.2457
@<TRIPOS>BOND
     1     2     1    1
     2     3     2    1
     3     4     3    1
     4     5     4    1
     5     6     5   ar
     6     7     5   ar
