@<TRIPOS>MOLECULE
9FG9_ABU_B503
 7 6 0 0 0
SMALL
GASTEIGER

@<TRIPOS>ATOM
      1 N         189.0510  224.8100  244.1300 N.3     1  UNL1       -0.1314
      2 C         189.1180  223.3380  243.9830 C.3     1  UNL1        0.1099
      3 C         187.7750  222.7050  244.2000 C.3     1  UNL1        0.0323
      4 C         187.8520  221.1960  244.0670 C.3     1  UNL1        0.1156
      5 C         186.5490  220.4750  244.3390 C.2     1  UNL1        0.3649
      6 O         185.4810  221.0680  244.0960 O.co2   1  UNL1       -0.2457
      7 O         186.6200  219.3170  244.8020 O.co2   1  UNL1       -0.2457
@<TRIPOS>BOND
     1     2     1    1
     2     3     2    1
     3     4     3    1
     4     5     4    1
     5     6     5   ar
     6     7     5   ar
