@<TRIPOS>MOLECULE
9HNQ_ABU_B601
 7 6 0 0 0
SMALL
GASTEIGER

@<TRIPOS>ATOM
      1 N         236.9250  213.1880  245.9080 N.3     1  UNL1       -0.1314
      2 C         235.9190  214.2270  245.7420 C.3     1  UNL1        0.1099
      3 C         236.2980  215.4880  246.5020 C.3     1  UNL1        0.0323
      4 C         235.3410  216.6350  246.2290 C.3     1  UNL1        0.1156
      5 C         235.8230  218.0350  246.6550 C.2     1  UNL1        0.3649
      6 O         236.1340  218.8130  245.7290 O.co2   1  UNL1       -0.2457
      7 O         235.8670  218.2890  247.8750 O.co2   1  UNL1       -0.2457
@<TRIPOS>BOND
     1     2     1    1
     2     3     2    1
     3     4     3    1
     4     5     4    1
     5     6     5   ar
     6     7     5   ar
