@<TRIPOS>MOLECULE
5F1A_SAL_A601
 10 10 0 0 0
SMALL
GASTEIGER

@<TRIPOS>ATOM
      1 C          24.9900    3.6870   33.3520 C.2     1  UNL1        0.3909
      2 O          25.5810    3.8250   32.3080 O.co2   1  UNL1       -0.2404
      3 O          23.9380    3.0810   33.4770 O.co2   1  UNL1       -0.2404
      4 C          25.5840    4.2860   34.5290 C.ar    1  UNL1        0.1186
      5 C          26.9290    4.8010   34.4610 C.ar    1  UNL1        0.2020
      6 C          27.4750    5.3630   35.5570 C.ar    1  UNL1        0.0422
      7 C          26.7400    5.4140   36.6970 C.ar    1  UNL1        0.0033
      8 C          25.4640    4.9150   36.7610 C.ar    1  UNL1        0.0004
      9 C          24.8750    4.3430   35.6750 C.ar    1  UNL1        0.0098
     10 O          27.6440    4.7280   33.3390 O.3     1  UNL1       -0.2863
@<TRIPOS>BOND
     1     2     1   ar
     2     3     1   ar
     3     4     1    1
     4     5     4   ar
     5     6     5   ar
     6     7     6   ar
     7     8     7   ar
     8     9     8   ar
     9     9     4   ar
    10    10     5    1
