@<TRIPOS>MOLECULE
5IKV_FLF_B601
 29 30 0 0 0
SMALL
GASTEIGER

@<TRIPOS>ATOM
      1 C          26.5370    4.7540   34.2520 C.ar    1  UNL1        0.0842
      2 O          27.5830    4.5850   32.1750 O.co2   1  UNL1       -0.2405
      3 C          26.8570    5.2480   35.4830 C.ar    1  UNL1       -0.0458
      4 C          25.9370    5.2300   36.4690 C.ar    1  UNL1       -0.0609
      5 O          28.8800    5.1320   33.7040 O.co2   1  UNL1       -0.2405
      6 C          24.7000    4.7440   36.2470 C.ar    1  UNL1       -0.0600
      7 C          24.3770    4.2380   35.0380 C.ar    1  UNL1       -0.0397
      8 C          25.2990    4.2410   34.0530 C.ar    1  UNL1        0.0456
      9 C          27.7360    4.8580   33.3480 C.2     1  UNL1        0.3883
     10 N          25.0350    3.7620   32.7840 N.pl3   1  UNL1       -0.3138
     11 C          23.9240    3.0120   32.3870 C.ar    1  UNL1        0.0319
     12 C          23.4850    3.1470   31.1070 C.ar    1  UNL1       -0.0289
     13 C          22.4320    2.4300   30.6280 C.ar    1  UNL1        0.0566
     14 C          21.8160    1.5620   31.4710 C.ar    1  UNL1       -0.0500
     15 C          22.2500    1.4190   32.7450 C.ar    1  UNL1       -0.0595
     16 C          23.3040    2.1360   33.2030 C.ar    1  UNL1       -0.0405
     17 C          21.9610    2.5770   29.2230 C.3     1  UNL1        0.4175
     18 F          21.3350    1.5320   28.8580 F       1  UNL1       -0.1659
     19 F          21.1090    3.5050   29.1600 F       1  UNL1       -0.1659
     20 F          22.8580    2.8290   28.3290 F       1  UNL1       -0.1659
     21 H          27.7410    5.6080   35.6630 H       1  UNL1        0.0626
     22 H          26.1620    5.5900   37.3400 H       1  UNL1        0.0618
     23 H          24.0500    4.7410   36.9640 H       1  UNL1        0.0618
     24 H          23.4900    3.8870   34.8840 H       1  UNL1        0.0636
     25 H          25.6300    3.9770   32.1330 H       1  UNL1        0.1522
     26 H          23.9420    3.7630   30.5140 H       1  UNL1        0.0642
     27 H          21.0600    1.0430   31.1580 H       1  UNL1        0.0623
     28 H          21.8010    0.7970   33.3400 H       1  UNL1        0.0618
     29 H          23.6040    2.0270   34.1190 H       1  UNL1        0.0636
@<TRIPOS>BOND
     1     3     1   ar
     2     4     3   ar
     3     6     4   ar
     4     7     6   ar
     5     8     7   ar
     6     8     1   ar
     7     9     1    1
     8     9     2   ar
     9     9     5   ar
    10    10     8    1
    11    11    10    1
    12    12    11   ar
    13    13    12   ar
    14    14    13   ar
    15    15    14   ar
    16    16    11   ar
    17    16    15   ar
    18    17    13    1
    19    17    18    1
    20    19    17    1
    21    20    17    1
    22    21     3    1
    23    22     4    1
    24    23     6    1
    25    24     7    1
    26    25    10    1
    27    26    12    1
    28    27    14    1
    29    28    15    1
    30    29    16    1
