@<TRIPOS>MOLECULE
5KIR_RCX_A601
 22 24 0 0 0
SMALL
GASTEIGER

@<TRIPOS>ATOM
      1 C          23.7460    2.8110   32.5190 C.2     1  UNL1        0.0752
      2 C          22.9020    1.6400   32.5190 C.2     1  UNL1        0.0275
      3 C          22.3820    1.5490   31.2170 C.3     1  UNL1        0.2356
      4 C          23.6600    3.3140   31.2070 C.2     1  UNL1        0.3413
      5 O          22.8540    2.5450   30.4870 O.3     1  UNL1       -0.4404
      6 O          24.3260    4.4470   30.7240 O.2     1  UNL1       -0.2449
      7 C          24.5870    3.4150   33.6790 C.ar    1  UNL1        0.0060
      8 C          24.0320    3.6100   34.9420 C.ar    1  UNL1        0.0002
      9 C          24.8070    4.1670   35.9760 C.ar    1  UNL1        0.0000
     10 C          26.1320    4.5330   35.7430 C.ar    1  UNL1        0.0000
     11 C          26.6860    4.3430   34.4790 C.ar    1  UNL1        0.0000
     12 C          25.9120    3.7850   33.4490 C.ar    1  UNL1        0.0002
     13 C          22.5800    0.6810   33.6390 C.ar    1  UNL1       -0.0002
     14 C          23.5450    0.2230   34.5310 C.ar    1  UNL1        0.0011
     15 C          23.1800   -0.6700   35.5340 C.ar    1  UNL1        0.0183
     16 C          21.8670   -1.0980   35.6390 C.ar    1  UNL1        0.1057
     17 C          20.9120   -0.6390   34.7400 C.ar    1  UNL1        0.0183
     18 C          21.2750    0.2430   33.7390 C.ar    1  UNL1        0.0011
     19 S          21.3580   -2.2370   36.9030 S.O2    1  UNL1        0.0104
     20 O          21.5830   -3.6550   36.4360 O.2     1  UNL1       -0.1686
     21 O          19.8880   -2.0150   37.2100 O.2     1  UNL1       -0.1686
     22 C          22.3180   -1.9930   38.3830 C.3     1  UNL1        0.1816
@<TRIPOS>BOND
     1     2     1    2
     2     3     2    1
     3     4     1    1
     4     5     4    1
     5     5     3    1
     6     6     4    2
     7     7     1    1
     8     8     7   ar
     9     9     8   ar
    10    10     9   ar
    11    11    10   ar
    12    12    11   ar
    13    12     7   ar
    14    13     2    1
    15    14    13   ar
    16    15    14   ar
    17    16    15   ar
    18    17    16   ar
    19    18    17   ar
    20    18    13   ar
    21    19    16    1
    22    20    19    2
    23    21    19    2
    24    19    22    1
