@<TRIPOS>MOLECULE
1HW8_114_A2
 29 30 0 0 0
SMALL
GASTEIGER

@<TRIPOS>ATOM
      1 O          13.9100    1.7530   16.0830 O.co2   1  UNL1       -0.2456
      2 O          16.0650    2.5090   16.2110 O.co2   1  UNL1       -0.2456
      3 O          13.4500    4.8850   14.4940 O.3     1  UNL1       -0.2225
      4 O          14.6610    6.7100   10.9840 O.3     1  UNL1       -0.2231
      5 O          17.4690    9.9070   15.7530 O.3     1  UNL1       -0.4519
      6 O          15.1710   10.1810   16.0590 O.2     1  UNL1       -0.2501
      7 C          15.0100    2.3930   15.5850 C.2     1  UNL1        0.3674
      8 C          14.8030    2.9180   14.1410 C.3     1  UNL1        0.1469
      9 C          14.7120    4.4460   13.9720 C.3     1  UNL1        0.1658
     10 C          14.7910    4.8610   12.4830 C.3     1  UNL1        0.0663
     11 C          15.0510    6.3670   12.2910 C.3     1  UNL1        0.1546
     12 C          16.5240    6.7140   12.4640 C.3     1  UNL1        0.0330
     13 C          16.7650    8.2000   12.7910 C.3     1  UNL1        0.0034
     14 C          18.2310    8.5260   13.1960 C.3     1  UNL1        0.0116
     15 C          19.3220    7.9600   12.2020 C.3     1  UNL1        0.0224
     16 C          20.7310    8.3390   12.7020 C.2     1  UNL1       -0.0268
     17 C          20.9880    9.4150   13.4930 C.2     1  UNL1       -0.0091
     18 C          20.0110   10.2680   13.9280 C.2     1  UNL1       -0.0236
     19 C          20.3520   11.3270   14.7210 C.2     1  UNL1       -0.0302
     20 C          19.3530   12.3510   15.2900 C.3     1  UNL1        0.0294
     21 C          17.8780   12.1780   14.8200 C.3     1  UNL1        0.0486
     22 C          17.4960   10.6930   14.5300 C.3     1  UNL1        0.1730
     23 C          18.5100   10.0400   13.5360 C.3     1  UNL1        0.0624
     24 C          19.2030    8.5090   10.7630 C.3     1  UNL1        0.0047
     25 C          16.2670    9.7210   16.4160 C.2     1  UNL1        0.3163
     26 C          16.4580    8.8480   17.6800 C.3     1  UNL1        0.0991
     27 C          17.9330    8.8400   18.2120 C.3     1  UNL1        0.0111
     28 C          18.2700    9.7680   19.4180 C.3     1  UNL1        0.0006
     29 C          15.4210    9.1420   18.7850 C.3     1  UNL1        0.0116
@<TRIPOS>BOND
     1     7     2   ar
     2     7     1   ar
     3     8     7    1
     4     9     8    1
     5     9     3    1
     6    10     9    1
     7    11    10    1
     8    11     4    1
     9    12    11    1
    10    13    12    1
    11    14    13    1
    12    15    14    1
    13    16    15    1
    14    17    16    2
    15    18    17    1
    16    19    18    2
    17    20    19    1
    18    21    20    1
    19    22     5    1
    20    22    21    1
    21    23    22    1
    22    23    18    1
    23    23    14    1
    24    15    24    1
    25    25     6    2
    26    25     5    1
    27    26    25    1
    28    27    26    1
    29    28    27    1
    30    26    29    1
