@<TRIPOS>MOLECULE
1HWL_FBI_A2
 33 34 0 0 0
SMALL
GASTEIGER

@<TRIPOS>ATOM
      1 O          22.4270    9.2950   14.1710 O.2     1  UNL1       -0.1541
      2 O          23.3260   11.1960   15.6760 O.2     1  UNL1       -0.1541
      3 N          20.6040   10.6790   15.6980 N.pl3   1  UNL1       -0.1605
      4 C          20.5850   11.3800   17.0180 C.3     1  UNL1        0.1420
      5 S          22.0890   10.7380   14.7830 S.O2    1  UNL1        0.0611
      6 C          21.9340   11.9080   13.4540 C.3     1  UNL1        0.1999
      7 C          17.4740    8.8440   15.5390 C.ar    1  UNL1        0.0813
      8 C          17.2800    8.6750   14.1150 C.ar    1  UNL1        0.0093
      9 C          18.3070    9.2130   13.2650 C.ar    1  UNL1        0.0590
     10 N          19.3520    9.8470   13.8210 N.ar    1  UNL1       -0.2171
     11 C          19.4420    9.9670   15.1260 C.ar    1  UNL1        0.2387
     12 N          18.5640    9.4970   15.9770 N.ar    1  UNL1       -0.2127
     13 C          15.1950    8.5890   18.4830 C.ar    1  UNL1        0.0297
     14 C          16.0500    9.1470   17.5270 C.ar    1  UNL1        0.0038
     15 C          16.6010    8.3480   16.5010 C.ar    1  UNL1        0.0176
     16 C          16.2590    6.9640   16.4770 C.ar    1  UNL1        0.0038
     17 C          15.4090    6.4110   17.4290 C.ar    1  UNL1        0.0297
     18 C          14.8790    7.2250   18.4300 C.ar    1  UNL1        0.1401
     19 F          14.0500    6.6790   19.3740 F       1  UNL1       -0.2042
     20 O          13.9120    1.8980   16.1580 O.co2   1  UNL1       -0.2456
     21 O          15.9670    2.6930   16.2370 O.co2   1  UNL1       -0.2456
     22 O          13.5850    4.8270   14.5510 O.3     1  UNL1       -0.2225
     23 C          14.8370    2.4230   15.6130 C.2     1  UNL1        0.3674
     24 C          14.8410    2.8420   14.1700 C.3     1  UNL1        0.1469
     25 C          14.7840    4.3670   13.9690 C.3     1  UNL1        0.1658
     26 C          14.7830    4.7390   12.4870 C.3     1  UNL1        0.0663
     27 C          14.7690    6.2600   12.1980 C.3     1  UNL1        0.1549
     28 C          16.0400    6.9270   12.6940 C.3     1  UNL1        0.0377
     29 C          16.0360    7.9380   13.5610 C.3     1  UNL1        0.0317
     30 C          18.2800    9.0950   11.7070 C.3     1  UNL1        0.0401
     31 C          18.4640   10.4280   10.9740 C.3     1  UNL1        0.0063
     32 C          19.3610    8.1010   11.1980 C.3     1  UNL1        0.0063
     33 O          14.6260    6.4230   10.8040 O.3     1  UNL1       -0.2231
@<TRIPOS>BOND
     1     4     3    1
     2     5     3    1
     3     5     1    2
     4     5     2    2
     5     5     6    1
     6     8     7   ar
     7     9     8   ar
     8    10     9   ar
     9    11    10   ar
    10    11     3    1
    11    12    11   ar
    12    12     7   ar
    13    14    13   ar
    14    15    14   ar
    15    15     7    1
    16    16    15   ar
    17    17    16   ar
    18    18    17   ar
    19    18    13   ar
    20    19    18    1
    21    23    21   ar
    22    23    20   ar
    23    24    23    1
    24    25    24    1
    25    25    22    1
    26    26    25    1
    27    27    26    1
    28    28    27    1
    29    29    28    1
    30    29     8    1
    31    30     9    1
    32    30    31    1
    33    32    30    1
    34    27    33    1
