@<TRIPOS>MOLECULE
2Q6C_HR1_A3002
 41 45 0 0 0
SMALL
GASTEIGER

@<TRIPOS>ATOM
      1 N          18.7570    9.1770   13.0940 N.ar    1  UNL1       -0.3288
      2 C          23.2810   14.1220   15.0410 C.ar    1  UNL1        0.0015
      3 C          17.5530    8.8670   15.0450 C.ar    1  UNL1        0.0133
      4 C          19.2190    9.1290   11.6690 C.3     1  UNL1        0.0854
      5 C          16.6970    7.7360   12.6990 C.3     1  UNL1        0.0464
      6 C          15.4000    7.2640   13.3290 C.3     1  UNL1        0.0392
      7 C          15.1180    4.8430   12.6480 C.3     1  UNL1        0.0663
      8 C          18.1930    9.7530   10.7240 C.3     1  UNL1        0.0245
      9 C          14.6260    8.9630   17.4340 C.ar    1  UNL1        0.0296
     10 C          23.4560   11.3500   15.3190 C.ar    1  UNL1        0.0176
     11 C          22.2070   11.9620   15.2450 C.ar    1  UNL1        0.0669
     12 C          16.6080    7.1800   16.6320 C.ar    1  UNL1        0.0023
     13 C          19.0720   10.8090   18.9700 C.ar    1  UNL1        0.0001
     14 C          15.6730    6.7970   17.5880 C.ar    1  UNL1        0.0296
     15 C          22.1230   13.3480   15.1030 C.ar    1  UNL1        0.0176
     16 C          20.2410   11.5530   18.8800 C.ar    1  UNL1        0.0015
     17 O          21.2450   10.8050   13.1160 O.2     1  UNL1       -0.2650
     18 C          20.5820   10.6250   14.1570 C.ar    1  UNL1        0.2805
     19 C          19.4220    9.8490   14.0750 C.ar    1  UNL1        0.1169
     20 C          19.5970    7.6950   11.2890 C.3     1  UNL1        0.0245
     21 C          18.7190    9.6940   15.3480 C.ar    1  UNL1        0.0230
     22 C          19.2100   10.3240   16.6040 C.ar    1  UNL1        0.0178
     23 C          18.5570   10.1950   17.8320 C.ar    1  UNL1        0.0015
     24 C          20.3810   11.0690   16.5030 C.ar    1  UNL1        0.0669
     25 C          20.8910   11.6810   17.6580 C.ar    1  UNL1        0.0176
     26 N          21.0190   11.1940   15.3100 N.ar    1  UNL1       -0.2734
     27 C          24.5300   13.5060   15.1150 C.ar    1  UNL1        0.0001
     28 C          24.6150   12.1230   15.2530 C.ar    1  UNL1        0.0015
     29 C          16.5440    8.4500   16.0610 C.ar    1  UNL1        0.0013
     30 C          14.6850    7.6870   17.9910 C.ar    1  UNL1        0.1401
     31 C          15.5580    9.3450   16.4700 C.ar    1  UNL1        0.0023
     32 F          13.7890    7.3060   18.9180 F       1  UNL1       -0.2042
     33 C          17.6280    8.5550   13.5800 C.ar    1  UNL1        0.0372
     34 C          14.6660    6.2810   12.4050 C.3     1  UNL1        0.1549
     35 O          14.8950    6.5820   11.0370 O.3     1  UNL1       -0.2230
     36 C          14.7960    4.3600   14.0570 C.3     1  UNL1        0.1658
     37 O          13.4570    4.6970   14.3770 O.3     1  UNL1       -0.2225
     38 C          14.9810    2.8510   14.1470 C.3     1  UNL1        0.1469
     39 C          15.1020    2.4560   15.5980 C.2     1  UNL1        0.3674
     40 O          14.1780    1.7950   16.1160 O.co2   1  UNL1       -0.2456
     41 O          16.1250    2.8130   16.2270 O.co2   1  UNL1       -0.2456
@<TRIPOS>BOND
     1     4     1    1
     2     6     5    1
     3     4     8    1
     4    11    10   ar
     5    14    12   ar
     6    15    11   ar
     7    15     2   ar
     8    16    13   ar
     9    18    17    2
    10    19    18   ar
    11    19     1   ar
    12    20     4    1
    13    21    19   ar
    14    21     3   ar
    15    22    21   ar
    16    23    22   ar
    17    23    13   ar
    18    24    22   ar
    19    25    24   ar
    20    25    16   ar
    21    26    18   ar
    22    26    24   ar
    23    26    11    1
    24    27     2   ar
    25    28    27   ar
    26    28    10   ar
    27    29     3    1
    28    29    12   ar
    29    30    14   ar
    30    30     9   ar
    31    31     9   ar
    32    31    29   ar
    33    32    30    1
    34    33     5    1
    35    33     3   ar
    36    33     1   ar
    37    34     7    1
    38    34     6    1
    39    34    35    1
    40    36     7    1
    41    36    37    1
    42    38    36    1
    43    39    38    1
    44    40    39   ar
    45    41    39   ar
