@<TRIPOS>MOLECULE
3CDA_8HI_B1
 45 48 0 0 0
SMALL
GASTEIGER

@<TRIPOS>ATOM
      1 N          21.5040   11.0690   14.2950 N.am    1  UNL1       -0.1742
      2 C          16.1010    9.5180   17.1310 C.ar    1  UNL1        0.0023
      3 C          15.1060    9.1420   18.0400 C.ar    1  UNL1        0.0296
      4 C          17.7990    8.8340   15.3700 C.ar    1  UNL1        0.0132
      5 C          17.6450    8.6340   14.0160 C.ar    1  UNL1        0.0371
      6 C          19.7370    9.3580   14.4240 C.ar    1  UNL1        0.1157
      7 C          19.5460    9.5560   17.0310 C.ar    1  UNL1        0.0016
      8 C          20.3390   10.3000   19.6060 C.ar    1  UNL1        0.0000
      9 C          19.3590    8.6840   18.0940 C.ar    1  UNL1        0.0000
     10 C          22.7450   11.5840   14.0510 C.ar    1  UNL1        0.0738
     11 C          25.1970   12.8040   13.3390 C.ar    1  UNL1        0.1251
     12 C          25.1740   11.5530   13.9670 C.ar    1  UNL1        0.0213
     13 C          23.9620   10.9350   14.3080 C.ar    1  UNL1        0.0180
     14 C          19.3360   10.3290   11.4810 C.3     1  UNL1        0.0245
     15 C          16.3820    8.1800   13.3020 C.3     1  UNL1        0.0464
     16 C          15.1430    6.1890   12.3550 C.3     1  UNL1        0.1549
     17 O          16.2100    2.6410   16.2480 O.co2   1  UNL1       -0.2456
     18 C          15.2280    2.3680   15.5830 C.2     1  UNL1        0.3674
     19 O          14.2200    1.7080   16.1350 O.co2   1  UNL1       -0.2456
     20 C          15.1500    2.7750   14.1340 C.3     1  UNL1        0.1469
     21 C          14.9610    4.2770   13.9890 C.3     1  UNL1        0.1658
     22 O          13.6610    4.6470   14.3800 O.3     1  UNL1       -0.2225
     23 C          15.1480    4.6740   12.5300 C.3     1  UNL1        0.0663
     24 O          14.8750    6.4570   10.9970 O.3     1  UNL1       -0.2230
     25 C          16.5060    6.7720   12.7370 C.3     1  UNL1        0.0392
     26 C          16.7280    8.5410   16.3620 C.ar    1  UNL1        0.0013
     27 C          16.3650    7.2030   16.5070 C.ar    1  UNL1        0.0023
     28 C          15.3750    6.8320   17.4030 C.ar    1  UNL1        0.0296
     29 C          14.7460    7.7990   18.1710 C.ar    1  UNL1        0.1401
     30 F          13.7910    7.4090   19.0340 F       1  UNL1       -0.2042
     31 N          18.8390    8.9620   13.4600 N.ar    1  UNL1       -0.3289
     32 C          19.0510    8.9140   11.9800 C.3     1  UNL1        0.0854
     33 C          20.1180    7.9000   11.5730 C.3     1  UNL1        0.0245
     34 C          19.0850    9.2240   15.6450 C.ar    1  UNL1        0.0214
     35 C          20.0980   10.8180   17.2780 C.ar    1  UNL1        0.0000
     36 C          20.5130   11.1880   18.5550 C.ar    1  UNL1        0.0000
     37 C          19.7670    9.0490   19.3740 C.ar    1  UNL1        0.0000
     38 C          21.1730    9.7730   14.2700 C.2     1  UNL1        0.2849
     39 O          21.9320    8.9090   13.8550 O.2     1  UNL1       -0.2664
     40 C          22.7730   12.8220   13.4080 C.ar    1  UNL1        0.0180
     41 C          23.9810   13.4340   13.0690 C.ar    1  UNL1        0.0213
     42 S          26.5830   13.5280   12.9490 S.O2    1  UNL1        0.0935
     43 O          27.5850   12.5480   12.6480 O.2     1  UNL1       -0.1503
     44 O          26.4430   14.3560   11.7920 O.2     1  UNL1       -0.1503
     45 N          27.0480   14.4350   14.1830 N.3     1  UNL1        0.0392
@<TRIPOS>BOND
     1     3     2   ar
     2     5     4   ar
     3     9     7   ar
     4    10     1    1
     5    12    11   ar
     6    13    12   ar
     7    13    10   ar
     8    15     5    1
     9    18    17   ar
    10    19    18   ar
    11    20    18    1
    12    21    20    1
    13    21    22    1
    14    23    21    1
    15    23    16    1
    16    16    24    1
    17    25    16    1
    18    25    15    1
    19    26     2   ar
    20    26     4    1
    21    27    26   ar
    22    28    27   ar
    23    29    28   ar
    24    29     3   ar
    25    30    29    1
    26    31     6   ar
    27    31     5   ar
    28    32    31    1
    29    32    14    1
    30    33    32    1
    31    34     6   ar
    32    34     4   ar
    33    34     7    1
    34    35     7   ar
    35    36    35   ar
    36    36     8   ar
    37    37     9   ar
    38    37     8   ar
    39    38     6    1
    40    38     1   am
    41    39    38    2
    42    40    10   ar
    43    41    40   ar
    44    41    11   ar
    45    42    11    1
    46    43    42    2
    47    44    42    2
    48    42    45    1
