@<TRIPOS>MOLECULE
3CDB_9HI_D3
 46 49 0 0 0
SMALL
GASTEIGER

@<TRIPOS>ATOM
      1 N          17.3940    8.8250   13.9550 N.ar    1  UNL1       -0.3293
      2 N          17.0710   16.8830   13.7930 N.am    1  UNL1       -0.0837
      3 C          17.3330    8.8910   15.3000 C.ar    1  UNL1        0.0609
      4 C          19.0420    9.4490   12.0940 C.3     1  UNL1        0.0397
      5 C          16.2810    8.2950   13.1550 C.3     1  UNL1        0.1084
      6 C          16.3730    6.7900   12.9600 C.3     1  UNL1        0.0574
      7 C          15.0670    4.6940   12.6520 C.3     1  UNL1        0.0664
      8 C          18.0600   10.2410   11.2310 C.3     1  UNL1        0.0063
      9 C          14.5250    8.9610   17.8450 C.ar    1  UNL1        0.0297
     10 C          19.3520   13.6670   15.9940 C.ar    1  UNL1        0.0182
     11 C          18.3580   14.5980   15.6890 C.ar    1  UNL1        0.0060
     12 C          16.2390    7.1340   16.6500 C.ar    1  UNL1        0.0037
     13 C          19.9610    9.1370   19.3100 C.ar    1  UNL1        0.0296
     14 C          15.3070    6.6970   17.5800 C.ar    1  UNL1        0.0297
     15 C          19.2420   12.8060   13.7470 C.ar    1  UNL1        0.0182
     16 C          19.5480   10.3400   19.8770 C.ar    1  UNL1        0.1401
     17 O          15.5640   15.2490   14.0240 O.2     1  UNL1       -0.2667
     18 C          16.7300   15.6230   14.0610 C.2     1  UNL1        0.2842
     19 C          17.8050   14.6340   14.4120 C.ar    1  UNL1        0.0567
     20 C          18.2490   13.7360   13.4470 C.ar    1  UNL1        0.0060
     21 C          19.8010   12.7590   15.0270 C.ar    1  UNL1        0.0910
     22 N          20.7670   11.8600   15.3660 N.pl3   1  UNL1       -0.0965
     23 S          20.8360   10.4030   14.6970 S.O2    1  UNL1        0.0939
     24 O          21.4270   10.4910   13.4010 O.2     1  UNL1       -0.1483
     25 O          21.6840    9.5840   15.5180 O.2     1  UNL1       -0.1483
     26 C          19.3190    9.7310   14.6510 C.ar    1  UNL1        0.1399
     27 C          18.5920    9.4610   15.7830 C.ar    1  UNL1        0.0358
     28 C          18.9480    9.7310   17.2090 C.ar    1  UNL1        0.0029
     29 C          19.6650    8.8280   17.9820 C.ar    1  UNL1        0.0024
     30 C          18.5300   10.9320   17.7810 C.ar    1  UNL1        0.0024
     31 C          18.8280   11.2420   19.1050 C.ar    1  UNL1        0.0296
     32 F          19.8400   10.6300   21.1590 F       1  UNL1       -0.2042
     33 C          18.5880    9.3420   13.5150 C.ar    1  UNL1        0.0556
     34 C          19.3360    8.0570   11.5320 C.3     1  UNL1        0.0063
     35 C          16.3200    8.4800   16.3120 C.ar    1  UNL1        0.0160
     36 C          14.4500    7.6100   18.1770 C.ar    1  UNL1        0.1401
     37 C          15.4610    9.3970   16.9060 C.ar    1  UNL1        0.0037
     38 F          13.5530    7.1780   19.0760 F       1  UNL1       -0.2042
     39 C          15.0420    6.2060   12.4840 C.3     1  UNL1        0.1565
     40 O          14.8430    6.4780   11.1080 O.3     1  UNL1       -0.2230
     41 C          14.7500    4.2610   14.0730 C.3     1  UNL1        0.1658
     42 O          13.3870    4.5010   14.3490 O.3     1  UNL1       -0.2225
     43 C          15.0330    2.7750   14.2050 C.3     1  UNL1        0.1469
     44 C          15.0520    2.4010   15.6610 C.2     1  UNL1        0.3674
     45 O          14.0940    1.8330   16.1540 O.co2   1  UNL1       -0.2456
     46 O          16.1180    2.7010   16.3940 O.co2   1  UNL1       -0.2456
@<TRIPOS>BOND
     1     3     1   ar
     2     5     1    1
     3     6     5    1
     4     4     8    1
     5    11    10   ar
     6    14    12   ar
     7    16    13   ar
     8    18    17    2
     9    18     2   am
    10    19    18    1
    11    19    11   ar
    12    20    19   ar
    13    20    15   ar
    14    21    15   ar
    15    21    10   ar
    16    22    21    1
    17    23    22    1
    18    24    23    2
    19    25    23    2
    20    26    23    1
    21    27    26   ar
    22    27     3   ar
    23    28    27    1
    24    29    28   ar
    25    29    13   ar
    26    30    28   ar
    27    31    16   ar
    28    31    30   ar
    29    32    16    1
    30    33    26   ar
    31    33     4    1
    32    33     1   ar
    33    34     4    1
    34    35    12   ar
    35    35     3    1
    36    36    14   ar
    37    36     9   ar
    38    37    35   ar
    39    37     9   ar
    40    38    36    1
    41    39     7    1
    42    39     6    1
    43    39    40    1
    44    41     7    1
    45    41    42    1
    46    43    41    1
    47    44    43    1
    48    45    44   ar
    49    46    44   ar
