@<TRIPOS>MOLECULE
3CDB_9HI_D3
 46 49 0 0 0
SMALL
GASTEIGER

@<TRIPOS>ATOM
      1 N          17.3630    8.8080   13.9500 N.ar    1  UNL1       -0.3293
      2 N          17.0090   16.8650   13.7880 N.am    1  UNL1       -0.0837
      3 C          17.2940    8.8730   15.2950 C.ar    1  UNL1        0.0609
      4 C          19.0180    9.4390   12.0980 C.3     1  UNL1        0.0397
      5 C          16.2560    8.2740   13.1430 C.3     1  UNL1        0.1084
      6 C          16.3560    6.7690   12.9480 C.3     1  UNL1        0.0574
      7 C          15.0600    4.6680   12.6330 C.3     1  UNL1        0.0664
      8 C          18.0380   10.2270   11.2290 C.3     1  UNL1        0.0063
      9 C          14.4720    8.9310   17.8240 C.ar    1  UNL1        0.0297
     10 C          19.2910   13.6570   16.0000 C.ar    1  UNL1        0.0182
     11 C          18.2940   14.5840   15.6910 C.ar    1  UNL1        0.0060
     12 C          16.2000    7.1110   16.6380 C.ar    1  UNL1        0.0037
     13 C          19.9000    9.1290   19.3180 C.ar    1  UNL1        0.0296
     14 C          15.2660    6.6700   17.5630 C.ar    1  UNL1        0.0297
     15 C          19.1960   12.7960   13.7520 C.ar    1  UNL1        0.0182
     16 C          19.4790   10.3300   19.8840 C.ar    1  UNL1        0.1401
     17 O          15.5070   15.2240   14.0110 O.2     1  UNL1       -0.2667
     18 C          16.6710   15.6030   14.0540 C.2     1  UNL1        0.2842
     19 C          17.7480   14.6180   14.4100 C.ar    1  UNL1        0.0567
     20 C          18.2010   13.7230   13.4480 C.ar    1  UNL1        0.0060
     21 C          19.7490   12.7510   15.0360 C.ar    1  UNL1        0.0910
     22 N          20.7160   11.8560   15.3790 N.pl3   1  UNL1       -0.0965
     23 S          20.7940   10.4000   14.7110 S.O2    1  UNL1        0.0939
     24 O          21.3920   10.4900   13.4180 O.2     1  UNL1       -0.1483
     25 O          21.6410    9.5840   15.5350 O.2     1  UNL1       -0.1483
     26 C          19.2810    9.7220   14.6560 C.ar    1  UNL1        0.1399
     27 C          18.5490    9.4480   15.7840 C.ar    1  UNL1        0.0358
     28 C          18.8960    9.7190   17.2130 C.ar    1  UNL1        0.0029
     29 C          19.6120    8.8190   17.9890 C.ar    1  UNL1        0.0024
     30 C          18.4700   10.9180   17.7820 C.ar    1  UNL1        0.0024
     31 C          18.7590   11.2300   19.1080 C.ar    1  UNL1        0.0296
     32 F          19.7630   10.6210   21.1670 F       1  UNL1       -0.2042
     33 C          18.5570    9.3300   13.5160 C.ar    1  UNL1        0.0556
     34 C          19.3220    8.0490   11.5360 C.3     1  UNL1        0.0063
     35 C          16.2780    8.4580   16.3010 C.ar    1  UNL1        0.0160
     36 C          14.4010    7.5800   18.1550 C.ar    1  UNL1        0.1401
     37 C          15.4120    9.3710   16.8900 C.ar    1  UNL1        0.0037
     38 F          13.5020    7.1440   19.0500 F       1  UNL1       -0.2042
     39 C          15.0300    6.1800   12.4650 C.3     1  UNL1        0.1565
     40 O          14.8370    6.4520   11.0880 O.3     1  UNL1       -0.2230
     41 C          14.7370    4.2340   14.0530 C.3     1  UNL1        0.1658
     42 O          13.3710    4.4680   14.3200 O.3     1  UNL1       -0.2225
     43 C          15.0250    2.7490   14.1860 C.3     1  UNL1        0.1469
     44 C          15.0370    2.3740   15.6410 C.2     1  UNL1        0.3674
     45 O          14.0790    1.8020   16.1290 O.co2   1  UNL1       -0.2456
     46 O          16.0990    2.6780   16.3800 O.co2   1  UNL1       -0.2456
@<TRIPOS>BOND
     1     3     1   ar
     2     5     1    1
     3     6     5    1
     4     4     8    1
     5    11    10   ar
     6    14    12   ar
     7    16    13   ar
     8    18    17    2
     9    18     2   am
    10    19    18    1
    11    19    11   ar
    12    20    19   ar
    13    20    15   ar
    14    21    15   ar
    15    21    10   ar
    16    22    21    1
    17    23    22    1
    18    24    23    2
    19    25    23    2
    20    26    23    1
    21    27    26   ar
    22    27     3   ar
    23    28    27    1
    24    29    28   ar
    25    29    13   ar
    26    30    28   ar
    27    31    16   ar
    28    31    30   ar
    29    32    16    1
    30    33    26   ar
    31    33     4    1
    32    33     1   ar
    33    34     4    1
    34    35    12   ar
    35    35     3    1
    36    36    14   ar
    37    36     9   ar
    38    37    35   ar
    39    37     9   ar
    40    38    36    1
    41    39     7    1
    42    39     6    1
    43    39    40    1
    44    41     7    1
    45    41    42    1
    46    43    41    1
    47    44    43    1
    48    45    44   ar
    49    46    44   ar
