@<TRIPOS>MOLECULE
1GZ8_MBP_A1300
 17 18 0 0 0
SMALL
GASTEIGER

@<TRIPOS>ATOM
      1 C           7.4840  -23.3420  -24.6590 C.ar    1  UNL1        0.2606
      2 C           9.0300  -22.2240  -23.3870 C.ar    1  UNL1        0.1891
      3 C           8.0340  -21.6840  -22.5110 C.ar    1  UNL1        0.1718
      4 C           3.3710  -21.0850  -21.5610 C.2     1  UNL1        0.1941
      5 O           3.7150  -20.3210  -20.6300 O.2     1  UNL1       -0.2922
      6 C           1.1480  -20.3660  -22.3780 C.3     1  UNL1        0.0079
      7 C           1.9570  -21.5160  -21.8140 C.3     1  UNL1        0.0615
      8 C           1.3300  -22.0790  -20.5540 C.3     1  UNL1        0.0079
      9 N          10.1450  -21.7110  -22.8660 N.ar    1  UNL1       -0.2031
     10 N           8.7590  -23.0640  -24.4120 N.ar    1  UNL1       -0.1902
     11 N           7.2060  -24.1670  -25.6780 N.pl3   1  UNL1       -0.0859
     12 N           6.4840  -22.8480  -23.8670 N.ar    1  UNL1       -0.1748
     13 C           6.6720  -22.0080  -22.8700 C.ar    1  UNL1        0.2490
     14 O           5.6630  -21.5480  -22.1370 O.3     1  UNL1       -0.4509
     15 C           4.3310  -21.6860  -22.5510 C.3     1  UNL1        0.2707
     16 N           8.6070  -20.9030  -21.5760 N.ar    1  UNL1       -0.2161
     17 C           9.8850  -20.9340  -21.8250 C.ar    1  UNL1        0.2005
@<TRIPOS>BOND
     1     3     2   ar
     2     5     4    2
     3     7     6    1
     4     7     4    1
     5     8     7    1
     6     9     2   ar
     7    10     2   ar
     8    10     1   ar
     9    11     1    1
    10    12     1   ar
    11    13    12   ar
    12    13     3   ar
    13    14    13    1
    14    15     4    1
    15    15    14    1
    16    16     3   ar
    17    17     9   ar
    18    17    16   ar
