@<TRIPOS>MOLECULE
1H00_FAP_A1300
 30 32 0 0 0
SMALL
GASTEIGER

@<TRIPOS>ATOM
      1 C           6.5240  -25.3460  -26.3540 C.ar    1  UNL1        0.0197
      2 C          10.2810  -21.9960  -23.1320 C.ar    1  UNL1        0.2013
      3 C           8.5560  -23.3310  -23.8760 C.ar    1  UNL1        0.1564
      4 C           7.6430  -22.6100  -23.0310 C.ar    1  UNL1        0.0722
      5 C           8.2010  -21.5500  -22.2430 C.ar    1  UNL1        0.1565
      6 C           6.8770  -25.1240  -24.9960 C.ar    1  UNL1        0.0723
      7 C           5.9970  -25.5800  -23.9600 C.ar    1  UNL1        0.0197
      8 C           4.7910  -26.2370  -24.2810 C.ar    1  UNL1        0.0382
      9 C           4.4350  -26.4570  -25.6380 C.ar    1  UNL1        0.1388
     10 N           9.5200  -21.2660  -22.3130 N.ar    1  UNL1       -0.2071
     11 N           9.8650  -23.0020  -23.9070 N.ar    1  UNL1       -0.2071
     12 N           7.4080  -20.7320  -21.3330 N.pl3   1  UNL1       -0.1894
     13 N           8.1360  -24.4380  -24.7210 N.pl3   1  UNL1       -0.1940
     14 C           5.3120  -26.0070  -26.6780 C.ar    1  UNL1        0.0382
     15 O           3.2220  -27.1090  -25.8420 O.3     1  UNL1       -0.4727
     16 C           1.9190  -26.4610  -25.8270 C.3     1  UNL1        0.2394
     17 C           3.6100  -20.9860  -19.2560 C.ar    1  UNL1        0.0047
     18 C           4.1410  -19.7400  -19.6720 C.ar    1  UNL1        0.0311
     19 C           5.3870  -19.6810  -20.3480 C.ar    1  UNL1        0.1575
     20 C           6.1200  -20.8770  -20.6240 C.ar    1  UNL1        0.1268
     21 C           4.3170  -22.1830  -19.5140 C.ar    1  UNL1        0.0311
     22 C           5.5630  -22.1430  -20.1900 C.ar    1  UNL1        0.1575
     23 F           5.8660  -18.4550  -20.7320 F       1  UNL1       -0.2027
     24 F           6.1960  -23.3330  -20.4110 F       1  UNL1       -0.2027
     25 C           0.7870  -27.4450  -26.1720 C.3     1  UNL1        0.2112
     26 C          -0.5830  -26.8560  -26.5890 C.3     1  UNL1        0.1094
     27 N          -1.7490  -27.8000  -26.6530 N.3     1  UNL1       -0.2681
     28 C          -1.9030  -28.4590  -27.9780 C.3     1  UNL1        0.0897
     29 C          -3.0270  -27.1330  -26.2650 C.3     1  UNL1        0.0897
     30 O           0.6700  -28.4550  -25.2280 O.3     1  UNL1       -0.2176
@<TRIPOS>BOND
     1     4     3   ar
     2     5     4   ar
     3     6     1   ar
     4     7     6   ar
     5     8     7   ar
     6     9     8   ar
     7    10     2   ar
     8    10     5   ar
     9    11     3   ar
    10    11     2   ar
    11    12     5    1
    12    13     6    1
    13    13     3    1
    14    14     9   ar
    15    14     1   ar
    16    15     9    1
    17    16    15    1
    18    18    17   ar
    19    19    18   ar
    20    20    19   ar
    21    20    12    1
    22    21    17   ar
    23    22    21   ar
    24    22    20   ar
    25    23    19    1
    26    24    22    1
    27    25    16    1
    28    26    25    1
    29    27    26    1
    30    28    27    1
    31    29    27    1
    32    25    30    1
