@<TRIPOS>MOLECULE
1H00_FCP_A1400
 30 32 0 0 0
SMALL
GASTEIGER

@<TRIPOS>ATOM
      1 C           6.1100  -25.1630  -26.3430 C.ar    1  UNL1        0.0197
      2 C          10.2730  -22.0640  -23.3790 C.ar    1  UNL1        0.2013
      3 C           8.4300  -23.2980  -24.0030 C.ar    1  UNL1        0.1564
      4 C           7.6240  -22.5510  -23.0760 C.ar    1  UNL1        0.0722
      5 C           8.2950  -21.5360  -22.3180 C.ar    1  UNL1        0.1565
      6 C           6.5810  -24.9860  -25.0140 C.ar    1  UNL1        0.0723
      7 C           5.7640  -25.4200  -23.9190 C.ar    1  UNL1        0.0197
      8 C           4.5050  -26.0110  -24.1530 C.ar    1  UNL1        0.0382
      9 C           4.0320  -26.1850  -25.4810 C.ar    1  UNL1        0.1388
     10 N           9.6160  -21.3140  -22.4900 N.ar    1  UNL1       -0.2071
     11 N           9.7470  -23.0330  -24.1340 N.ar    1  UNL1       -0.2071
     12 N           7.6180  -20.6990  -21.3340 N.pl3   1  UNL1       -0.1894
     13 N           7.8900  -24.3670  -24.8300 N.pl3   1  UNL1       -0.1940
     14 C           4.8440  -25.7580  -26.5800 C.ar    1  UNL1        0.0382
     15 O           2.7760  -26.7740  -25.5970 O.3     1  UNL1       -0.4727
     16 C           1.5120  -26.0640  -25.4670 C.3     1  UNL1        0.2394
     17 C           3.6980  -19.3120  -20.0530 C.ar    1  UNL1        0.0047
     18 C           4.8890  -18.6780  -19.6280 C.ar    1  UNL1        0.0311
     19 C           6.1530  -19.1550  -20.0670 C.ar    1  UNL1        0.1575
     20 C           6.2440  -20.2850  -20.9450 C.ar    1  UNL1        0.1268
     21 C           3.7580  -20.4280  -20.9190 C.ar    1  UNL1        0.0311
     22 C           5.0090  -20.9230  -21.3700 C.ar    1  UNL1        0.1575
     23 F           7.2780  -18.5100  -19.6290 F       1  UNL1       -0.2027
     24 F           4.9800  -22.0000  -22.2000 F       1  UNL1       -0.2027
     25 C           0.2530  -26.9520  -25.5710 C.3     1  UNL1        0.2112
     26 C           0.1910  -27.9670  -26.7360 C.3     1  UNL1        0.1094
     27 N          -0.8550  -27.7210  -27.7810 N.3     1  UNL1       -0.2681
     28 C          -2.2040  -28.2130  -27.3860 C.3     1  UNL1        0.0897
     29 C          -0.4690  -28.2940  -29.1030 C.3     1  UNL1        0.0897
     30 O           0.0050  -27.5890  -24.3200 O.3     1  UNL1       -0.2176
@<TRIPOS>BOND
     1     4     3   ar
     2     5     4   ar
     3     6     1   ar
     4     7     6   ar
     5     8     7   ar
     6     9     8   ar
     7    10     2   ar
     8    10     5   ar
     9    11     3   ar
    10    11     2   ar
    11    12     5    1
    12    13     6    1
    13    13     3    1
    14    14     9   ar
    15    14     1   ar
    16    15     9    1
    17    16    15    1
    18    18    17   ar
    19    19    18   ar
    20    20    19   ar
    21    20    12    1
    22    21    17   ar
    23    22    21   ar
    24    22    20   ar
    25    23    19    1
    26    24    22    1
    27    25    16    1
    28    26    25    1
    29    27    26    1
    30    28    27    1
    31    29    27    1
    32    25    30    1
