@<TRIPOS>MOLECULE
1URW_I1P_A1300
 32 35 0 0 0
SMALL
GASTEIGER

@<TRIPOS>ATOM
      1 C           6.6330  -26.3420  -26.6800 C.ar    1  UNL1        0.0180
      2 C           7.4410  -18.5650  -19.1700 C.ar    1  UNL1        0.0256
      3 C           6.2760  -19.3030  -19.3480 C.ar    1  UNL1        0.0404
      4 C           7.3140  -21.7280  -21.8670 C.ar    1  UNL1        0.1212
      5 C           8.6260  -18.8420  -19.8430 C.ar    1  UNL1        0.1207
      6 C           6.3340  -20.4640  -20.3930 C.ar    1  UNL1        0.1640
      7 N           8.7050  -19.8310  -20.7240 N.ar    1  UNL1       -0.1621
      8 C           9.6450  -22.0800  -22.7000 C.ar    1  UNL1        0.0415
      9 C           8.2310  -22.3570  -22.7680 C.ar    1  UNL1        0.1050
     10 C           5.9180  -22.0890  -21.6520 C.ar    1  UNL1        0.1212
     11 C           6.8340  -25.4930  -25.5530 C.ar    1  UNL1        0.0737
     12 C           8.6520  -23.8150  -24.5490 C.ar    1  UNL1        0.2409
     13 C          10.4800  -22.7520  -23.6350 C.ar    1  UNL1        0.1035
     14 N           7.7800  -23.2320  -23.7100 N.ar    1  UNL1       -0.2106
     15 C           5.8280  -25.4400  -24.5300 C.ar    1  UNL1        0.0180
     16 C           4.6650  -26.2210  -24.6230 C.ar    1  UNL1        0.0213
     17 C           4.4970  -27.0640  -25.7420 C.ar    1  UNL1        0.1236
     18 N           7.5560  -20.5990  -21.0550 N.ar    1  UNL1       -0.2092
     19 N           5.2770  -21.2730  -20.7030 N.ar    1  UNL1       -0.2234
     20 N           9.9730  -23.6060  -24.5420 N.ar    1  UNL1       -0.2106
     21 N           8.0620  -24.7340  -25.4910 N.pl3   1  UNL1       -0.1777
     22 C           5.4640  -27.1320  -26.7790 C.ar    1  UNL1        0.0213
     23 S           3.0810  -28.0680  -25.8420 S.O2    1  UNL1        0.0768
     24 N           1.7650  -27.2400  -25.0620 N.3     1  UNL1       -0.0777
     25 C           1.2160  -26.1600  -25.9130 C.3     1  UNL1        0.1169
     26 C          -0.2530  -25.8820  -25.5660 C.3     1  UNL1        0.0381
     27 C          -1.1710  -27.1230  -25.7760 C.3     1  UNL1        0.0737
     28 N          -2.6630  -26.9000  -25.7870 N.3     1  UNL1       -0.2703
     29 C          -3.1950  -26.3450  -27.0620 C.3     1  UNL1        0.0897
     30 C          -3.1370  -26.0810  -24.6190 C.3     1  UNL1        0.0897
     31 O           3.3500  -29.4230  -25.0600 O.2     1  UNL1       -0.1516
     32 O           2.7190  -28.3740  -27.3510 O.2     1  UNL1       -0.1516
@<TRIPOS>BOND
     1     3     2   ar
     2     5     2   ar
     3     6     3   ar
     4     7     5   ar
     5     9     8   ar
     6     9     4    1
     7    10     4   ar
     8    11     1   ar
     9    13     8   ar
    10    14    12   ar
    11    14     9   ar
    12    15    11   ar
    13    16    15   ar
    14    17    16   ar
    15    18     4   ar
    16    18     7   ar
    17    18     6   ar
    18    19    10   ar
    19    19     6   ar
    20    20    13   ar
    21    20    12   ar
    22    21    12    1
    23    21    11    1
    24    22    17   ar
    25    22     1   ar
    26    23    17    1
    27    23    24    1
    28    25    24    1
    29    26    25    1
    30    27    26    1
    31    28    27    1
    32    29    28    1
    33    30    28    1
    34    31    23    2
    35    32    23    2
