@<TRIPOS>MOLECULE
2CCH_ATP_C1297
 31 33 0 0 0
SMALL
GASTEIGER

@<TRIPOS>ATOM
      1 P          -1.1280  -22.4840  -16.7610 P.3     1  UNL1        0.5373
      2 O           0.3730  -22.3310  -16.7550 O.2     1  UNL1       -0.2221
      3 O          -1.8860  -21.1860  -16.9410 O.3     1  UNL1       -0.1143
      4 O          -1.6480  -23.3690  -15.6590 O.3     1  UNL1       -0.1143
      5 P          -0.6940  -23.1050  -19.4840 P.3     1  UNL1        0.2277
      6 O           0.5430  -23.9650  -19.5670 O.2     1  UNL1       -0.5168
      7 O          -1.7280  -23.2110  -20.5780 O.3     1  UNL1       -0.4368
      8 O          -1.4350  -23.3650  -18.0780 O.3     1  UNL1       -0.2258
      9 P          -0.0670  -20.6210  -20.6170 P.3     1  UNL1        0.2189
     10 O          -1.3930  -20.5220  -21.3340 O.2     1  UNL1       -0.5170
     11 O           0.6890  -19.3750  -20.2160 O.3     1  UNL1       -0.4371
     12 O          -0.2240  -21.5720  -19.3340 O.3     1  UNL1       -0.2700
     13 O           0.8860  -21.5040  -21.5500 O.3     1  UNL1       -0.3112
     14 C           2.2580  -21.6820  -21.2400 C.3     1  UNL1        0.1813
     15 C           2.7890  -22.6910  -22.2440 C.3     1  UNL1        0.1801
     16 O           3.8500  -22.1150  -23.0060 O.3     1  UNL1       -0.3306
     17 C           3.3250  -23.9640  -21.6020 C.3     1  UNL1        0.2161
     18 O           2.3150  -24.9790  -21.5740 O.3     1  UNL1       -0.2175
     19 C           4.5210  -24.3580  -22.4530 C.3     1  UNL1        0.2337
     20 O           4.2350  -25.5010  -23.2770 O.3     1  UNL1       -0.2155
     21 C           4.8350  -23.1160  -23.2900 C.3     1  UNL1        0.2409
     22 N           6.2040  -22.6160  -22.9790 N.ar    1  UNL1       -0.2693
     23 C           6.5710  -21.7010  -22.0540 C.ar    1  UNL1        0.1816
     24 N           7.9210  -21.5080  -22.0720 N.ar    1  UNL1       -0.2193
     25 C           8.4280  -22.3180  -23.0230 C.ar    1  UNL1        0.1518
     26 C           9.7660  -22.6300  -23.5830 C.ar    1  UNL1        0.1919
     27 N          10.8730  -22.0290  -23.1070 N.pl3   1  UNL1       -0.1054
     28 N           9.8370  -23.5480  -24.5750 N.ar    1  UNL1       -0.2040
     29 C           8.7420  -24.1630  -25.0610 C.ar    1  UNL1        0.2016
     30 N           7.5020  -23.9380  -24.6040 N.ar    1  UNL1       -0.2048
     31 C           7.2880  -23.0440  -23.6120 C.ar    1  UNL1        0.1692
@<TRIPOS>BOND
     1     2     1    2
     2     3     1    1
     3     4     1    1
     4     6     5    2
     5     7     5    1
     6     8     5    1
     7     8     1    1
     8    10     9    2
     9    11     9    1
    10    12     5    1
    11    12     9    1
    12    13     9    1
    13    14    13    1
    14    15    14    1
    15    16    15    1
    16    17    15    1
    17    17    18    1
    18    19    17    1
    19    19    20    1
    20    21    19    1
    21    21    16    1
    22    21    22    1
    23    23    22   ar
    24    24    23   ar
    25    25    24   ar
    26    26    25   ar
    27    27    26    1
    28    28    26   ar
    29    29    28   ar
    30    30    29   ar
    31    31    30   ar
    32    31    25   ar
    33    31    22   ar
