@<TRIPOS>MOLECULE
2CCH_ATP_C1297
 31 33 0 0 0
SMALL
GASTEIGER

@<TRIPOS>ATOM
      1 P          -1.4160  -22.3680  -16.8290 P.3     1  UNL1        0.5373
      2 O           0.0830  -22.1990  -16.8170 O.2     1  UNL1       -0.2221
      3 O          -2.1880  -21.0770  -16.9990 O.3     1  UNL1       -0.1143
      4 O          -1.9300  -23.2680  -15.7380 O.3     1  UNL1       -0.1143
      5 P          -0.9660  -22.9590  -19.5570 P.3     1  UNL1        0.2277
      6 O           0.2810  -23.8040  -19.6430 O.2     1  UNL1       -0.5168
      7 O          -1.9960  -23.0650  -20.6550 O.3     1  UNL1       -0.4368
      8 O          -1.7090  -23.2400  -18.1560 O.3     1  UNL1       -0.2258
      9 P          -0.3630  -20.4570  -20.6640 P.3     1  UNL1        0.2189
     10 O          -1.6880  -20.3650  -21.3850 O.2     1  UNL1       -0.5170
     11 O           0.3780  -19.2070  -20.2480 O.3     1  UNL1       -0.4371
     12 O          -0.5130  -21.4220  -19.3910 O.3     1  UNL1       -0.2700
     13 O           0.6030  -21.3210  -21.6020 O.3     1  UNL1       -0.3112
     14 C           1.9760  -21.4870  -21.2890 C.3     1  UNL1        0.1813
     15 C           2.5210  -22.4810  -22.3000 C.3     1  UNL1        0.1801
     16 O           3.5780  -21.8860  -23.0540 O.3     1  UNL1       -0.3306
     17 C           3.0690  -23.7540  -21.6690 C.3     1  UNL1        0.2161
     18 O           2.0690  -24.7790  -21.6540 O.3     1  UNL1       -0.2175
     19 C           4.2720  -24.1260  -22.5190 C.3     1  UNL1        0.2337
     20 O           4.0010  -25.2640  -23.3550 O.3     1  UNL1       -0.2155
     21 C           4.5760  -22.8730  -23.3440 C.3     1  UNL1        0.2409
     22 N           5.9380  -22.3620  -23.0230 N.ar    1  UNL1       -0.2693
     23 C           6.2910  -21.4510  -22.0880 C.ar    1  UNL1        0.1816
     24 N           7.6390  -21.2440  -22.1000 N.ar    1  UNL1       -0.2193
     25 C           8.1580  -22.0390  -23.0570 C.ar    1  UNL1        0.1518
     26 C           9.5020  -22.3320  -23.6140 C.ar    1  UNL1        0.1919
     27 N          10.6000  -21.7230  -23.1300 N.pl3   1  UNL1       -0.1054
     28 N           9.5860  -23.2390  -24.6160 N.ar    1  UNL1       -0.2040
     29 C           8.4990  -23.8610  -25.1110 C.ar    1  UNL1        0.2016
     30 N           7.2550  -23.6530  -24.6560 N.ar    1  UNL1       -0.2048
     31 C           7.0280  -22.7710  -23.6570 C.ar    1  UNL1        0.1692
@<TRIPOS>BOND
     1     2     1    2
     2     3     1    1
     3     4     1    1
     4     6     5    2
     5     7     5    1
     6     8     5    1
     7     8     1    1
     8    10     9    2
     9    11     9    1
    10    12     5    1
    11    12     9    1
    12    13     9    1
    13    14    13    1
    14    15    14    1
    15    16    15    1
    16    17    15    1
    17    17    18    1
    18    19    17    1
    19    19    20    1
    20    21    19    1
    21    21    16    1
    22    21    22    1
    23    23    22   ar
    24    24    23   ar
    25    25    24   ar
    26    26    25   ar
    27    27    26    1
    28    28    26   ar
    29    29    28   ar
    30    30    29   ar
    31    31    30   ar
    32    31    25   ar
    33    31    22   ar
