@<TRIPOS>MOLECULE
3PXZ_JWS_A301
 17 18 0 0 0
SMALL
GASTEIGER

@<TRIPOS>ATOM
      1 N           4.5210  -24.3200  -24.2230 N.ar    1  UNL1       -0.1756
      2 C           4.4420  -23.5170  -23.1030 C.ar    1  UNL1        0.2604
      3 N           3.3460  -23.5210  -22.3280 N.pl3   1  UNL1       -0.0859
      4 N           5.5000  -22.7080  -22.7700 N.ar    1  UNL1       -0.1918
      5 C           6.6350  -22.7000  -23.5540 C.ar    1  UNL1        0.1714
      6 C           7.7930  -21.8460  -23.1780 C.ar    1  UNL1        0.0779
      7 C           9.0100  -21.8310  -23.9720 C.ar    1  UNL1        0.1988
      8 O           9.1040  -22.6070  -25.0990 O.3     1  UNL1       -0.2865
      9 C          10.1110  -21.0000  -23.5490 C.ar    1  UNL1        0.0452
     10 C          10.0080  -20.2140  -22.3750 C.ar    1  UNL1        0.0402
     11 C           8.8150  -20.2030  -21.5600 C.ar    1  UNL1        0.1390
     12 O           8.8100  -19.4570  -20.4850 O.3     1  UNL1       -0.4714
     13 C           7.7090  -21.0430  -22.0020 C.ar    1  UNL1        0.0432
     14 N           6.6920  -23.5020  -24.6680 N.ar    1  UNL1       -0.1918
     15 C           5.6570  -24.3060  -25.0080 C.ar    1  UNL1        0.2604
     16 N           5.7600  -25.0740  -26.1000 N.pl3   1  UNL1       -0.0859
     17 C           9.9390  -18.6600  -20.0880 C.3     1  UNL1        0.2525
@<TRIPOS>BOND
     1     2     1   ar
     2     3     2    1
     3     4     2   ar
     4     5     4   ar
     5     6     5    1
     6     7     6   ar
     7     8     7    1
     8     9     7   ar
     9    10     9   ar
    10    11    10   ar
    11    12    11    1
    12    13     6   ar
    13    13    11   ar
    14    14     5   ar
    15    15     1   ar
    16    15    14   ar
    17    16    15    1
    18    17    12    1
