@<TRIPOS>MOLECULE
4ACM_7YG_A1302
 54 56 0 0 0
SMALL
GASTEIGER

@<TRIPOS>ATOM
      1 C          -2.1640  -26.6070  -27.0340 C.3     1  UNL1       -0.0130
      2 N          -0.9530  -26.0680  -26.4220 N.3     1  UNL1       -0.3071
      3 C          -1.2350  -24.7700  -25.8080 C.3     1  UNL1       -0.0130
      4 C           0.1420  -25.9700  -27.3930 C.3     1  UNL1        0.0125
      5 C           1.5660  -25.9920  -26.8440 C.3     1  UNL1        0.0302
      6 N           1.8020  -27.2280  -26.0840 N.3     1  UNL1       -0.1887
      7 S           3.2340  -27.9720  -26.1460 S.O2    1  UNL1        0.0584
      8 O           3.4330  -28.3850  -27.5020 O.2     1  UNL1       -0.1530
      9 O           3.2280  -28.9570  -25.1070 O.2     1  UNL1       -0.1530
     10 C           4.4660  -26.7840  -25.7350 C.ar    1  UNL1        0.1053
     11 C           4.3790  -26.1050  -24.5330 C.ar    1  UNL1       -0.0347
     12 C           5.3580  -25.1890  -24.1930 C.ar    1  UNL1       -0.0507
     13 C           6.4530  -24.9520  -25.0230 C.ar    1  UNL1        0.0020
     14 C           6.5170  -25.6580  -26.2300 C.ar    1  UNL1       -0.0507
     15 C           5.5460  -26.5790  -26.5830 C.ar    1  UNL1       -0.0347
     16 C           7.5010  -23.9690  -24.6430 C.ar    1  UNL1        0.0900
     17 C           8.7940  -24.0020  -25.1720 C.ar    1  UNL1        0.0557
     18 N           9.7900  -23.2540  -24.6860 N.ar    1  UNL1       -0.2363
     19 C           9.5220  -22.4140  -23.6640 C.ar    1  UNL1        0.1470
     20 C           8.1860  -22.3670  -23.1120 C.ar    1  UNL1        0.1656
     21 N           7.2090  -23.1370  -23.6280 N.ar    1  UNL1       -0.2371
     22 C           7.8060  -21.4810  -21.9610 C.2     1  UNL1        0.2700
     23 O           8.6000  -20.6500  -21.5350 O.2     1  UNL1       -0.2681
     24 N           6.5590  -21.6760  -21.4830 N.am    1  UNL1       -0.2789
     25 C           5.9010  -20.9660  -20.4530 C.ar    1  UNL1        0.0520
     26 C           4.8030  -21.5710  -19.8660 C.ar    1  UNL1       -0.0376
     27 C           4.1100  -20.9070  -18.8720 C.ar    1  UNL1       -0.0418
     28 C           4.5160  -19.6390  -18.5190 C.ar    1  UNL1        0.0277
     29 N           5.5700  -19.0240  -19.0640 N.ar    1  UNL1       -0.2614
     30 C           6.2390  -19.6830  -20.0200 C.ar    1  UNL1        0.0487
     31 N          10.5220  -21.6890  -23.1580 N.pl3   1  UNL1       -0.3413
     32 H          -3.0820  -26.5360  -26.4520 H       1  UNL1        0.0391
     33 H          -2.3920  -26.1720  -28.0060 H       1  UNL1        0.0391
     34 H          -2.0010  -27.6700  -27.2020 H       1  UNL1        0.0391
     35 H          -0.3910  -24.2410  -25.3650 H       1  UNL1        0.0391
     36 H          -1.6970  -24.0920  -26.5250 H       1  UNL1        0.0391
     37 H          -1.9610  -24.9000  -25.0070 H       1  UNL1        0.0391
     38 H           0.0180  -26.7660  -28.1260 H       1  UNL1        0.0439
     39 H          -0.0310  -25.0650  -27.9760 H       1  UNL1        0.0439
     40 H           2.2780  -25.9090  -27.6640 H       1  UNL1        0.0454
     41 H           1.7590  -25.1280  -26.2120 H       1  UNL1        0.0454
     42 H           1.0090  -27.5300  -25.5280 H       1  UNL1        0.1480
     43 H           3.5350  -26.2690  -23.8660 H       1  UNL1        0.0637
     44 H           5.6270  -27.1070  -27.5310 H       1  UNL1        0.0637
     45 H           5.2430  -24.6700  -23.2420 H       1  UNL1        0.0625
     46 H           7.3320  -25.5220  -26.9370 H       1  UNL1        0.0625
     47 H           9.0850  -24.6150  -26.0200 H       1  UNL1        0.0852
     48 H          10.3970  -21.0420  -22.3880 H       1  UNL1        0.1438
     49 H          11.4460  -21.7540  -23.5750 H       1  UNL1        0.1438
     50 H           5.9930  -22.4110  -21.8960 H       1  UNL1        0.1552
     51 H           4.4660  -22.5680  -20.1440 H       1  UNL1        0.0637
     52 H           7.0640  -19.1010  -20.4260 H       1  UNL1        0.0848
     53 H           3.2500  -21.3780  -18.3960 H       1  UNL1        0.0633
     54 H           4.0000  -19.0790  -17.7410 H       1  UNL1        0.0829
@<TRIPOS>BOND
     1     2     1    1
     2     3     2    1
     3     4     2    1
     4     5     4    1
     5     6     5    1
     6     7     6    1
     7     8     7    2
     8     9     7    2
     9    10     7    1
    10    11    10   ar
    11    12    11   ar
    12    13    12   ar
    13    14    13   ar
    14    15    10   ar
    15    15    14   ar
    16    16    13    1
    17    17    16   ar
    18    18    17   ar
    19    19    18   ar
    20    20    19   ar
    21    21    20   ar
    22    21    16   ar
    23    22    20    1
    24    23    22    2
    25    24    22   am
    26    25    24    1
    27    26    25   ar
    28    27    26   ar
    29    28    27   ar
    30    29    28   ar
    31    30    29   ar
    32    30    25   ar
    33    31    19    1
    34     1    32    1
    35    33     1    1
    36    34     1    1
    37     3    35    1
    38    36     3    1
    39    37     3    1
    40     4    38    1
    41    39     4    1
    42     5    40    1
    43    41     5    1
    44    42     6    1
    45    43    11    1
    46    44    15    1
    47    45    12    1
    48    46    14    1
    49    47    17    1
    50    48    31    1
    51    49    31    1
    52    50    24    1
    53    51    26    1
    54    52    30    1
    55    53    27    1
    56    54    28    1
