@<TRIPOS>MOLECULE
4FKJ_11K_A301
 26 29 0 0 0
SMALL
GASTEIGER

@<TRIPOS>ATOM
      1 N           9.9470  -22.3570  -23.8450 N.ar    1  UNL1       -0.1510
      2 N           9.5190  -23.3510  -24.4860 N.ar    1  UNL1       -0.1313
      3 N           7.5430  -24.5600  -24.7750 N.am    1  UNL1       -0.1582
      4 N           0.1860  -25.4930  -31.1880 N.3     1  UNL1       -0.2696
      5 O           5.5480  -24.3230  -23.6650 O.2     1  UNL1       -0.2726
      6 C           5.4280  -26.0460  -27.5020 C.ar    1  UNL1       -0.0007
      7 C           3.5490  -25.9380  -25.9920 C.ar    1  UNL1       -0.0007
      8 C           4.5930  -25.8490  -28.5980 C.ar    1  UNL1        0.0366
      9 C           2.7070  -25.7610  -27.0900 C.ar    1  UNL1        0.0366
     10 C           7.7980  -22.5220  -23.4170 C.ar    1  UNL1        0.0545
     11 C          -0.8770  -26.0870  -33.2120 C.3     1  UNL1        0.0188
     12 C          -0.4510  -27.3780  -32.5010 C.3     1  UNL1        0.0188
     13 C           1.2340  -24.7480  -29.0460 C.3     1  UNL1        0.2226
     14 C           8.5290  -20.4220  -20.9320 C.3     1  UNL1        0.0064
     15 C           8.0790  -19.5260  -22.0900 C.3     1  UNL1        0.0064
     16 C          -0.8440  -25.0150  -32.1210 C.3     1  UNL1        0.0722
     17 C          -0.0740  -26.9370  -31.0810 C.3     1  UNL1        0.0722
     18 C          -0.0650  -24.8860  -29.8640 C.3     1  UNL1        0.1200
     19 C           5.8290  -26.2780  -25.0100 C.3     1  UNL1        0.1135
     20 O           2.3900  -25.5520  -29.4590 O.3     1  UNL1       -0.4740
     21 C           6.2930  -24.9380  -24.4290 C.2     1  UNL1        0.2514
     22 C           4.9170  -26.0620  -26.2050 C.ar    1  UNL1       -0.0128
     23 C           3.2210  -25.7210  -28.3890 C.ar    1  UNL1        0.1386
     24 C           8.2020  -23.4710  -24.3000 C.ar    1  UNL1        0.1771
     25 C           8.9130  -21.7970  -23.1950 C.ar    1  UNL1        0.0831
     26 C           9.1840  -20.5490  -22.3280 C.3     1  UNL1        0.0422
@<TRIPOS>BOND
     1     2     1   ar
     2     8     6   ar
     3     9     7   ar
     4    12    11    1
     5    15    14    1
     6    16    11    1
     7    16     4    1
     8    17    12    1
     9    17     4    1
    10    18    13    1
    11    18     4    1
    12    20    13    1
    13    21    19    1
    14    21     5    2
    15    21     3   am
    16    22     6   ar
    17    22     7   ar
    18    22    19    1
    19    23    20    1
    20    23     8   ar
    21    23     9   ar
    22    24    10   ar
    23    24     3    1
    24    24     2   ar
    25    25    10   ar
    26    25     1   ar
    27    26    25    1
    28    26    15    1
    29    26    14    1
