@<TRIPOS>MOLECULE
4FKO_20K_A301
 24 26 0 0 0
SMALL
GASTEIGER

@<TRIPOS>ATOM
      1 S           5.3490  -22.3070  -21.9190 S.2     1  UNL1       -0.0696
      2 CL          5.1510  -27.4770  -28.2920 Cl      1  UNL1       -0.0809
      3 C           3.3920  -21.0960  -20.2960 C.3     1  UNL1        0.0594
      4 N           5.7200  -20.2700  -20.3990 N.ar    1  UNL1       -0.2470
      5 C           4.8080  -21.1240  -20.7670 C.ar    1  UNL1        0.0883
      6 N           9.7410  -23.7980  -24.1070 N.ar    1  UNL1       -0.2106
      7 C           6.9360  -20.4850  -21.0270 C.ar    1  UNL1        0.0670
      8 N           7.9790  -24.9040  -25.0280 N.pl3   1  UNL1       -0.1776
      9 C           8.0520  -19.5230  -20.7950 C.3     1  UNL1        0.0527
     10 N           2.8890  -27.0670  -26.3060 N.pl3   1  UNL1       -0.3034
     11 C           6.9340  -21.5870  -21.8880 C.ar    1  UNL1        0.0618
     12 N           7.4990  -23.2220  -23.4900 N.ar    1  UNL1       -0.2116
     13 C           7.9810  -22.2970  -22.6460 C.ar    1  UNL1        0.0929
     14 C           9.3400  -22.0630  -22.4860 C.ar    1  UNL1        0.0405
     15 C          10.1730  -22.8670  -23.2430 C.ar    1  UNL1        0.1035
     16 C           8.4140  -23.9450  -24.1820 C.ar    1  UNL1        0.2409
     17 C           6.7010  -25.4350  -25.2790 C.ar    1  UNL1        0.0745
     18 C           5.5890  -25.1990  -24.4770 C.ar    1  UNL1        0.0179
     19 C           4.3490  -25.7050  -24.8260 C.ar    1  UNL1        0.0167
     20 C           4.2010  -26.4460  -25.9880 C.ar    1  UNL1        0.0587
     21 C           1.7310  -26.3850  -25.6610 C.3     1  UNL1        0.1123
     22 C           2.8740  -28.5330  -26.0330 C.3     1  UNL1        0.1123
     23 C           5.3080  -26.6690  -26.7750 C.ar    1  UNL1        0.0722
     24 C           6.5560  -26.2030  -26.4260 C.ar    1  UNL1        0.0292
@<TRIPOS>BOND
     1     5     1   ar
     2     5     3    1
     3     5     4   ar
     4     7     4   ar
     5     9     7    1
     6    11     1   ar
     7    11     7   ar
     8    13    12   ar
     9    13    11    1
    10    14    13   ar
    11    15    14   ar
    12    15     6   ar
    13    16    12   ar
    14    16     8    1
    15    16     6   ar
    16    17     8    1
    17    18    17   ar
    18    19    18   ar
    19    20    19   ar
    20    20    10    1
    21    21    10    1
    22    22    10    1
    23    23     2    1
    24    23    20   ar
    25    24    23   ar
    26    24    17   ar
