@<TRIPOS>MOLECULE
4FKS_46K_A301
 42 45 0 0 0
SMALL
GASTEIGER

@<TRIPOS>ATOM
      1 C           1.4490  -26.2170  -27.5060 C.3     1  UNL1        0.0136
      2 N           1.3710  -27.8470  -25.5560 N.am    1  UNL1       -0.1857
      3 O          -0.3510  -26.3720  -25.9090 O.2     1  UNL1       -0.2745
      4 S           2.8580  -28.5430  -25.8780 S.O2    1  UNL1        0.0744
      5 C           0.7460  -26.7770  -26.2940 C.2     1  UNL1        0.2289
      6 N           6.8230  -24.3590  -24.6670 N.pl3   1  UNL1       -0.3198
      7 O           3.0030  -28.9270  -27.2500 O.2     1  UNL1       -0.1499
      8 S           5.2900  -21.5910  -21.0260 S.2     1  UNL1       -0.0747
      9 C           3.9160  -27.2810  -25.5850 C.ar    1  UNL1        0.1087
     10 N           9.8590  -21.7270  -23.2960 N.am    1  UNL1       -0.2809
     11 O           3.1630  -29.5200  -24.8830 O.2     1  UNL1       -0.1499
     12 C           4.9390  -26.9710  -26.5240 C.ar    1  UNL1       -0.0333
     13 N           6.3630  -19.6690  -19.5790 N.ar    1  UNL1       -0.2474
     14 O           9.3850  -23.3620  -24.9020 O.2     1  UNL1       -0.2698
     15 C           5.8910  -26.0060  -26.2250 C.ar    1  UNL1       -0.0387
     16 C           5.8390  -25.3050  -25.0110 C.ar    1  UNL1        0.0310
     17 C           6.7710  -23.4760  -23.6230 C.2     1  UNL1        0.0066
     18 C           7.7560  -22.6560  -23.3190 C.2     1  UNL1        0.0608
     19 C           9.0760  -22.6500  -23.9500 C.2     1  UNL1        0.2501
     20 C           9.1090  -21.0950  -22.2800 C.ar    1  UNL1        0.0428
     21 C           9.5510  -20.1470  -21.4010 C.ar    1  UNL1       -0.0378
     22 C           8.6370  -19.6070  -20.4690 C.ar    1  UNL1       -0.0334
     23 C           7.3610  -20.1090  -20.4780 C.ar    1  UNL1        0.0789
     24 C           5.2900  -20.3660  -19.7730 C.ar    1  UNL1        0.0659
     25 C           6.9230  -21.1320  -21.3450 C.ar    1  UNL1        0.0486
     26 C           7.7910  -21.6410  -22.2760 C.ar    1  UNL1        0.0253
     27 C           4.8290  -25.6300  -24.0690 C.ar    1  UNL1       -0.0387
     28 C           3.8860  -26.5860  -24.3890 C.ar    1  UNL1       -0.0333
     29 H          10.8360  -21.5280  -23.4930 H       1  UNL1        0.1552
     30 H           0.8050  -25.5130  -28.0310 H       1  UNL1        0.0323
     31 H           1.7190  -26.9870  -28.2270 H       1  UNL1        0.0323
     32 H           2.3490  -25.6620  -27.2460 H       1  UNL1        0.0323
     33 H           0.8040  -28.1660  -24.7760 H       1  UNL1        0.1765
     34 H           4.9810  -27.4660  -27.4930 H       1  UNL1        0.0638
     35 H           6.6510  -25.7710  -26.9680 H       1  UNL1        0.0637
     36 H           5.8430  -23.4030  -23.0600 H       1  UNL1        0.0789
     37 H          10.6020  -19.8730  -21.3590 H       1  UNL1        0.0637
     38 H           8.9370  -18.8360  -19.7600 H       1  UNL1        0.0640
     39 H           4.3820  -20.2470  -19.1830 H       1  UNL1        0.0907
     40 H           4.8070  -25.1950  -23.0740 H       1  UNL1        0.0637
     41 H           3.0830  -26.7830  -23.6810 H       1  UNL1        0.0638
     42 H           7.6500  -24.3810  -25.2570 H       1  UNL1        0.1516
@<TRIPOS>BOND
     1     4     2    1
     2     5     2   am
     3     5     1    1
     4     5     3    2
     5     7     4    2
     6     9     4    1
     7    11     4    2
     8    12     9   ar
     9    15    12   ar
    10    16    15   ar
    11    16     6    1
    12    17     6    1
    13    18    17    2
    14    19    18    1
    15    19    14    2
    16    19    10   am
    17    20    10    1
    18    21    20   ar
    19    22    21   ar
    20    23    22   ar
    21    23    13   ar
    22    24     8   ar
    23    24    13   ar
    24    25     8   ar
    25    25    23   ar
    26    26    18    1
    27    26    20   ar
    28    26    25   ar
    29    27    16   ar
    30    28     9   ar
    31    28    27   ar
    32    29    10    1
    33     1    30    1
    34    31     1    1
    35    32     1    1
    36    33     2    1
    37    34    12    1
    38    35    15    1
    39    36    17    1
    40    37    21    1
    41    38    22    1
    42    39    24    1
    43    40    27    1
    44    41    28    1
    45    42     6    1
