@<TRIPOS>MOLECULE
4FKU_60K_A303
 37 39 0 0 0
SMALL
GASTEIGER

@<TRIPOS>ATOM
      1  S          3.0780  -28.3520  -25.5430 S.O2  303  60K303      0.0559
      2  C1         4.2160  -27.0280  -25.3200 C.ar  303  60K303      0.1051
      3  N1         1.7010  -27.9770  -24.8010 N.3   303  60K303     -0.2035
      4  O1         2.7880  -28.4710  -26.9420 O.2   303  60K303     -0.1533
      5  C2         5.3320  -26.9800  -26.1300 C.ar  303  60K303     -0.0336
      6  N2         7.1930  -24.2280  -24.6290 N.pl3 303  60K303     -0.2371
      7  O2         3.6240  -29.4940  -24.9040 O.2   303  60K303     -0.1533
      8  C3         6.3160  -26.0530  -25.8770 C.ar  303  60K303     -0.0373
      9  N3         7.0490  -23.2140  -23.7020 N.2   303  60K303     -0.1767
     10  O3         9.7920  -23.4250  -24.9220 O.2   303  60K303     -0.2681
     11  C4         6.2000  -25.1760  -24.8110 C.ar  303  60K303      0.0484
     12  N4        10.2330  -21.7150  -23.4060 N.am  303  60K303     -0.2796
     13  O4         7.0290  -18.0720  -19.2400 O.2   303  60K303     -0.2451
     14  C5         8.0820  -22.4850  -23.4590 C.2   303  60K303      0.1524
     15  O5         5.4720  -19.4870  -19.9750 O.3   303  60K303     -0.4771
     16  C6         9.4520  -22.6280  -24.0430 C.2   303  60K303      0.2688
     17  C7         9.4990  -20.9600  -22.4870 C.ar  303  60K303      0.0432
     18  C8         9.9280  -19.9450  -21.6420 C.ar  303  60K303     -0.0390
     19  C9         8.9900  -19.3230  -20.8350 C.ar  303  60K303     -0.0460
     20  C10        7.6500  -19.7060  -20.8470 C.ar  303  60K303      0.0596
     21  C11        6.6700  -19.0260  -19.9400 C.2   303  60K303      0.3368
     22  C12        7.2340  -20.7480  -21.6770 C.ar  303  60K303     -0.0366
     23  C13        8.1580  -21.3870  -22.5050 C.ar  303  60K303      0.0290
     24  C14        5.0630  -25.2150  -24.0160 C.ar  303  60K303     -0.0373
     25  C15        4.0600  -26.1270  -24.2810 C.ar  303  60K303     -0.0336
     26  HN4       11.2290  -21.5890  -23.5560 H     303  60K303      0.1552
     27  HN1        1.2190  -27.0870  -24.8620 H     303  60K303      0.1442
     28 HN1A        1.1770  -28.6100  -24.2040 H     303  60K303      0.1442
     29  H2         5.4320  -27.6490  -26.9830 H     303  60K303      0.0638
     30  H3         7.1420  -25.9780  -26.5820 H     303  60K303      0.0637
     31  HN2        8.0170  -24.3510  -25.2080 H     303  60K303      0.1744
     32  H8        10.9850  -19.7050  -21.5520 H     303  60K303      0.0636
     33  H9         9.3250  -18.5160  -20.1850 H     303  60K303      0.0626
     34  HO5        4.8360  -19.0270  -19.3660 H     303  60K303      0.2954
     35  H12        6.2090  -21.1050  -21.7650 H     303  60K303      0.0633
     36  H14        4.9200  -24.5530  -23.1630 H     303  60K303      0.0637
     37  H15        3.1420  -26.1020  -23.6980 H     303  60K303      0.0638
@<TRIPOS>BOND
     1    29     5    1
     2     4     1    2
     3    30     8    1
     4     5     8   ar
     5     5     2   ar
     6     8    11   ar
     7     1     2    1
     8     1     7    2
     9     1     3    1
    10     2    25   ar
    11    31     6    1
    12    10    16    2
    13    27     3    1
    14    11     6    1
    15    11    24   ar
    16     3    28    1
    17     6     9    1
    18    25    24   ar
    19    25    37    1
    20    16    14    1
    21    16    12   am
    22    24    36    1
    23     9    14    2
    24    26    12    1
    25    14    23    1
    26    12    17    1
    27    23    17   ar
    28    23    22   ar
    29    17    18   ar
    30    35    22    1
    31    22    20   ar
    32    18    32    1
    33    18    19   ar
    34    20    19   ar
    35    20    21    1
    36    19    33    1
    37    15    21    1
    38    15    34    1
    39    21    13    2
