@<TRIPOS>MOLECULE
4RJ3_3QS_A302
 29 33 0 0 0
SMALL
GASTEIGER

@<TRIPOS>ATOM
      1 C           0.9520  -24.1200  -22.9700 C.3     1  UNL1        0.0511
      2 C           1.7970  -25.3890  -23.1890 C.3     1  UNL1        0.0961
      3 C           4.5690  -26.3630  -26.0130 C.ar    1  UNL1        0.1048
      4 C           3.6640  -24.3410  -21.7670 C.3     1  UNL1        0.0961
      5 C           2.8540  -23.0440  -21.7470 C.3     1  UNL1        0.0511
      6 C           4.1350  -25.3410  -23.9690 C.ar    1  UNL1        0.2214
      7 C           5.8060  -25.7310  -26.0610 C.ar    1  UNL1        0.0569
      8 C           6.1750  -24.8860  -25.0060 C.ar    1  UNL1        0.1576
      9 C           1.3760  -23.4510  -21.6520 C.3     1  UNL1        0.1188
     10 C           0.3580  -22.1070  -19.9530 C.3     1  UNL1        0.1740
     11 O           0.5630  -22.3120  -21.3550 O.3     1  UNL1       -0.3535
     12 N           3.2450  -25.1850  -22.9120 N.pl3   1  UNL1       -0.2780
     13 N           3.7700  -26.1440  -24.9660 N.ar    1  UNL1       -0.2120
     14 N           5.3200  -24.7110  -23.9830 N.ar    1  UNL1       -0.1968
     15 N           7.4250  -24.2760  -25.0920 N.pl3   1  UNL1       -0.1753
     16 C           7.9880  -23.3530  -24.2020 C.ar    1  UNL1        0.1547
     17 C           7.2330  -22.6870  -23.2340 C.ar    1  UNL1        0.0533
     18 C           7.8530  -21.7850  -22.3830 C.ar    1  UNL1        0.0642
     19 C           9.2440  -21.5650  -22.5400 C.ar    1  UNL1        0.0365
     20 C           9.6090  -20.5810  -21.5160 C.ar    1  UNL1        0.0216
     21 C           8.4910  -20.2820  -20.8410 C.ar    1  UNL1        0.0759
     22 N           7.4190  -20.9840  -21.3510 N.ar    1  UNL1       -0.3278
     23 C           6.0350  -20.9520  -20.8550 C.3     1  UNL1        0.0855
     24 C           5.9350  -21.9160  -19.6410 C.3     1  UNL1        0.0226
     25 C           4.8490  -21.3240  -18.6980 C.3     1  UNL1        0.0020
     26 C           4.3830  -20.0090  -19.3890 C.3     1  UNL1        0.0020
     27 C           5.6090  -19.6100  -20.2430 C.3     1  UNL1        0.0226
     28 C           9.9380  -22.2710  -23.5310 C.ar    1  UNL1        0.1018
     29 N           9.2980  -23.1270  -24.3220 N.ar    1  UNL1       -0.2272
@<TRIPOS>BOND
     1     2     1    1
     2     5     4    1
     3     7     3   ar
     4     8     7   ar
     5     9     1    1
     6     9     5    1
     7    11    10    1
     8     9    11    1
     9    12     6    1
    10    12     2    1
    11    12     4    1
    12    13     6   ar
    13    13     3   ar
    14    14     6   ar
    15    14     8   ar
    16    15     8    1
    17    16    15    1
    18    17    16   ar
    19    18    17   ar
    20    19    18   ar
    21    20    19   ar
    22    21    20   ar
    23    22    18   ar
    24    22    21   ar
    25    23    22    1
    26    24    23    1
    27    25    24    1
    28    26    25    1
    29    27    26    1
    30    27    23    1
    31    28    19   ar
    32    29    28   ar
    33    29    16   ar
