@<TRIPOS>MOLECULE
6Q4I_HGK_A302
 18 19 0 0 0
SMALL
GASTEIGER

@<TRIPOS>ATOM
      1 C           4.0980  -21.9670  -19.3490 C.ar    1  UNL1       -0.0006
      2 C           5.1060  -21.8080  -20.2670 C.ar    1  UNL1        0.0372
      3 C           4.7880  -21.4140  -21.5270 C.ar    1  UNL1        0.1448
      4 C           7.6390  -22.1070  -23.5260 C.3     1  UNL1        0.1514
      5 C           6.3690  -22.2960  -23.0550 C.2     1  UNL1        0.1334
      6 C           5.6920  -23.4780  -23.2770 C.2     1  UNL1        0.0514
      7 C           6.3290  -24.4680  -23.9470 C.2     1  UNL1        0.0914
      8 C           8.3260  -23.1710  -24.1350 C.2     1  UNL1        0.2533
      9 C           3.5130  -21.0580  -21.8690 C.ar    1  UNL1        0.0372
     10 C           2.5190  -21.1610  -20.9250 C.ar    1  UNL1       -0.0006
     11 N           7.6000  -24.3020  -24.3690 N.am    1  UNL1       -0.1774
     12 C           2.8120  -21.5520  -19.6390 C.ar    1  UNL1       -0.0107
     13 O           0.7070  -20.5360  -16.8210 O.co2   1  UNL1       -0.2453
     14 C           1.6290  -20.5060  -17.6340 C.2     1  UNL1        0.3692
     15 O           2.4190  -19.5400  -17.7220 O.co2   1  UNL1       -0.2453
     16 C           1.7330  -21.6670  -18.6020 C.3     1  UNL1        0.1404
     17 O           5.7840  -21.2100  -22.4750 O.3     1  UNL1       -0.4572
     18 O           9.4840  -23.1150  -24.5620 O.2     1  UNL1       -0.2725
@<TRIPOS>BOND
     1     2     1   ar
     2     3     2   ar
     3     5     4    1
     4     6     5    2
     5     7     6    1
     6     8     4    1
     7     9     3   ar
     8    10     9   ar
     9    11     8    1
    10    11     7    2
    11    12     1   ar
    12    12    10   ar
    13    14    13   ar
    14    15    14   ar
    15    16    14    1
    16    16    12    1
    17    17     3    1
    18    17     5    1
    19    18     8    2
