@<TRIPOS>MOLECULE
7RWE_7TH_A301
 22 23 0 0 0
SMALL
GASTEIGER

@<TRIPOS>ATOM
      1 C           4.1770  -26.2530  -26.0210 C.ar    1  UNL1       -0.0221
      2 C           2.9110  -25.4410  -28.3650 C.ar    1  UNL1       -0.0000
      3 C           2.8830  -25.7200  -25.9750 C.ar    1  UNL1       -0.0043
      4 C           6.0050  -21.5060  -21.5290 C.ar    1  UNL1        0.0766
      5 C           9.6990  -22.2290  -23.5700 C.2     1  UNL1        0.3892
      6 C           8.3430  -22.0180  -22.8630 C.ar    1  UNL1        0.1006
      7 C           7.2670  -22.8300  -23.0870 C.ar    1  UNL1        0.0720
      8 C           6.2370  -24.5040  -24.6050 C.3     1  UNL1        0.1126
      9 C           6.2960  -26.0540  -24.5040 C.3     1  UNL1        0.0280
     10 C           4.8810  -26.7120  -24.7180 C.3     1  UNL1        0.0282
     11 C           4.8290  -26.3770  -27.2420 C.ar    1  UNL1       -0.0043
     12 C           4.2040  -25.9740  -28.4180 C.ar    1  UNL1       -0.0003
     13 C           2.2590  -25.3180  -27.1440 C.ar    1  UNL1       -0.0003
     14 C           6.0750  -22.5810  -22.4080 C.ar    1  UNL1        0.0226
     15 C           7.0870  -20.7050  -21.3180 C.ar    1  UNL1        0.2904
     16 C           8.2770  -20.9520  -21.9940 C.ar    1  UNL1        0.0831
     17 N           7.3880  -23.9240  -23.9940 N.pl3   1  UNL1       -0.2374
     18 N           7.0430  -19.6050  -20.4390 N.pl3   1  UNL1        0.0809
     19 O           9.8190  -23.0860  -24.5130 O.co2   1  UNL1       -0.2405
     20 O          10.6610  -21.4910  -23.1690 O.co2   1  UNL1       -0.2405
     21 O           5.9130  -19.3820  -19.6890 O.2     1  UNL1        0.0415
     22 O           8.0330  -18.8300  -20.3650 O.co2   1  UNL1       -0.5760
@<TRIPOS>UNITY_ATOM_ATTR
18 1
charge 1
22 1
charge -1
@<TRIPOS>BOND
     1     3     1   ar
     2     6     5    1
     3     7     6   ar
     4     9     8    1
     5    10     1    1
     6    10     9    1
     7    11     1   ar
     8    12     2   ar
     9    12    11   ar
    10    13     2   ar
    11    13     3   ar
    12    14     7   ar
    13    14     4   ar
    14    15     4   ar
    15    16     6   ar
    16    16    15   ar
    17    17     8    1
    18    17     7    1
    19    18    15    1
    20    19     5   ar
    21    20     5   ar
    22    21    18    2
    23    22    18    1
