@<TRIPOS>MOLECULE
7RWE_7TH_A301
 22 23 0 0 0
SMALL
GASTEIGER

@<TRIPOS>ATOM
      1 C           4.2050  -26.3160  -25.8570 C.ar    1  UNL1       -0.0221
      2 C           2.9220  -25.5530  -28.2080 C.ar    1  UNL1       -0.0000
      3 C           2.8950  -25.8210  -25.8170 C.ar    1  UNL1       -0.0043
      4 C           5.8800  -21.4970  -21.3820 C.ar    1  UNL1        0.0766
      5 C           9.6000  -22.1210  -23.4100 C.2     1  UNL1        0.3892
      6 C           8.2360  -21.9470  -22.7070 C.ar    1  UNL1        0.1006
      7 C           7.1850  -22.7910  -22.9310 C.ar    1  UNL1        0.0720
      8 C           6.2090  -24.5010  -24.4430 C.3     1  UNL1        0.1126
      9 C           6.3120  -26.0480  -24.3350 C.3     1  UNL1        0.0280
     10 C           4.9180  -26.7490  -24.5500 C.3     1  UNL1        0.0282
     11 C           4.8640  -26.4270  -27.0750 C.ar    1  UNL1       -0.0043
     12 C           4.2310  -26.0480  -28.2550 C.ar    1  UNL1       -0.0003
     13 C           2.2640  -25.4420  -26.9890 C.ar    1  UNL1       -0.0003
     14 C           5.9840  -22.5730  -22.2560 C.ar    1  UNL1        0.0226
     15 C           6.9380  -20.6630  -21.1720 C.ar    1  UNL1        0.2904
     16 C           8.1360  -20.8790  -21.8430 C.ar    1  UNL1        0.0831
     17 N           7.3410  -23.8850  -23.8320 N.pl3   1  UNL1       -0.2374
     18 N           6.8590  -19.5620  -20.2990 N.pl3   1  UNL1        0.0809
     19 O           9.7480  -22.9790  -24.3490 O.co2   1  UNL1       -0.2405
     20 O          10.5380  -21.3540  -23.0100 O.co2   1  UNL1       -0.2405
     21 O           5.7210  -19.3680  -19.5530 O.2     1  UNL1        0.0415
     22 O           7.8260  -18.7580  -20.2250 O.co2   1  UNL1       -0.5760
@<TRIPOS>UNITY_ATOM_ATTR
18 1
charge 1
22 1
charge -1
@<TRIPOS>BOND
     1     3     1   ar
     2     6     5    1
     3     7     6   ar
     4     9     8    1
     5    10     1    1
     6    10     9    1
     7    11     1   ar
     8    12     2   ar
     9    12    11   ar
    10    13     2   ar
    11    13     3   ar
    12    14     7   ar
    13    14     4   ar
    14    15     4   ar
    15    16     6   ar
    16    16    15   ar
    17    17     8    1
    18    17     7    1
    19    18    15    1
    20    19     5   ar
    21    20     5   ar
    22    21    18    2
    23    22    18    1
