@<TRIPOS>MOLECULE
7VDU_65L_A301
 32 36 0 0 0
SMALL
GASTEIGER

@<TRIPOS>ATOM
      1 C           0.1600  -26.8970  -27.3020 C.ar    1  UNL1        0.0397
      2 C           1.3000  -26.1980  -27.5230 C.ar    1  UNL1        0.1017
      3 C           3.5420  -26.2470  -26.4620 C.ar    1  UNL1        0.0852
      4 C           5.6030  -25.3150  -27.2750 C.ar    1  UNL1        0.0204
      5 N           7.4450  -24.9060  -25.8010 N.pl3   1  UNL1       -0.1918
      6 C           7.8250  -23.8940  -24.9020 C.ar    1  UNL1        0.1533
      7 C           7.4250  -22.1950  -23.2100 C.ar    1  UNL1        0.0887
      8 C           7.0600  -20.6230  -21.5590 C.ar    1  UNL1        0.2247
      9 C           5.3260  -21.7460  -19.3950 C.3     1  UNL1        0.0624
     10 C           4.1060  -22.1000  -18.5550 C.3     1  UNL1        0.0924
     11 C           4.5790  -19.3320  -19.3120 C.3     1  UNL1        0.0624
     12 C           9.3250  -20.9680  -22.2860 C.ar    1  UNL1        0.0078
     13 C           9.6450  -22.6940  -24.0350 C.ar    1  UNL1        0.1018
     14 O          -1.6980  -28.0830  -25.2270 O.3     1  UNL1       -0.2134
     15 C          -0.5220  -28.7830  -25.6310 C.3     1  UNL1        0.2292
     16 C           0.4090  -27.7970  -26.2610 C.ar    1  UNL1        0.1136
     17 N           2.2300  -26.6780  -26.6570 N.ar    1  UNL1       -0.2284
     18 N           1.6240  -27.6580  -25.8800 N.ar    1  UNL1       -0.1668
     19 C           4.3110  -25.7470  -27.5130 C.ar    1  UNL1        0.0206
     20 C           6.1340  -25.3650  -25.9910 C.ar    1  UNL1        0.0996
     21 C           6.9500  -23.1590  -24.0860 C.ar    1  UNL1        0.0553
     22 N           6.5860  -21.5140  -22.4160 N.ar    1  UNL1       -0.2115
     23 O           6.2340  -19.9310  -20.7560 O.3     1  UNL1       -0.4639
     24 C           5.0410  -20.4710  -20.2200 C.3     1  UNL1        0.1704
     25 N           3.7040  -20.9670  -17.7320 N.3     1  UNL1       -0.2178
     26 C           3.3870  -19.7530  -18.4860 C.3     1  UNL1        0.0924
     27 C           8.4320  -20.3200  -21.4700 C.ar    1  UNL1        0.0578
     28 C           8.8330  -21.9450  -23.1780 C.ar    1  UNL1        0.0372
     29 N           9.1360  -23.6180  -24.8410 N.ar    1  UNL1       -0.2273
     30 C           5.3600  -25.8710  -24.9500 C.ar    1  UNL1        0.1568
     31 F           5.8260  -25.9380  -23.6960 F       1  UNL1       -0.2027
     32 C           4.0790  -26.2890  -25.1790 C.ar    1  UNL1        0.0501
@<TRIPOS>BOND
     1     2     1   ar
     2     6     5    1
     3    10     9    1
     4    15    14    1
     5    16    15    1
     6    16     1   ar
     7    17     2   ar
     8    17     3    1
     9    18    16   ar
    10    18    17   ar
    11    19     3   ar
    12    19     4   ar
    13    20     4   ar
    14    20     5    1
    15    21     7   ar
    16    21     6   ar
    17    22     7   ar
    18    22     8   ar
    19    23     8    1
    20    24    11    1
    21    24     9    1
    22    24    23    1
    23    25    10    1
    24    26    25    1
    25    26    11    1
    26    27    12   ar
    27    27     8   ar
    28    28    13   ar
    29    28     7   ar
    30    28    12   ar
    31    29    13   ar
    32    29     6   ar
    33    30    20   ar
    34    31    30    1
    35    32    30   ar
    36    32     3   ar
