@<TRIPOS>MOLECULE
8FP5_ATP_A302
 31 33 0 0 0
SMALL
GASTEIGER

@<TRIPOS>ATOM
      1 P           1.7580  -18.8700  -15.9590 P.3     1  UNL1        0.5373
      2 O           1.2330  -18.7860  -14.5660 O.2     1  UNL1       -0.2221
      3 O           3.2620  -19.2730  -16.0070 O.3     1  UNL1       -0.1143
      4 O           1.5300  -17.6140  -16.8020 O.3     1  UNL1       -0.1143
      5 P           1.2650  -21.0060  -17.9560 P.3     1  UNL1        0.2277
      6 O           2.5410  -21.7020  -17.7870 O.2     1  UNL1       -0.5168
      7 O           0.0190  -21.8900  -18.1820 O.3     1  UNL1       -0.4368
      8 O           1.0080  -20.0300  -16.7620 O.3     1  UNL1       -0.2258
      9 P           2.5060  -19.2940  -19.9850 P.3     1  UNL1        0.2189
     10 O           2.1170  -17.9620  -20.4870 O.2     1  UNL1       -0.5170
     11 O           3.6980  -19.1700  -19.0810 O.3     1  UNL1       -0.4371
     12 O           1.3480  -19.9840  -19.1660 O.3     1  UNL1       -0.2700
     13 O           2.7780  -20.3650  -21.1050 O.3     1  UNL1       -0.3112
     14 C           1.8820  -20.5250  -22.2240 C.3     1  UNL1        0.1813
     15 C           2.2100  -21.8590  -22.8440 C.3     1  UNL1        0.1801
     16 O           3.5190  -21.7890  -23.4590 O.3     1  UNL1       -0.3306
     17 C           2.2580  -23.0150  -21.8430 C.3     1  UNL1        0.2161
     18 O           1.7660  -24.2370  -22.3750 O.3     1  UNL1       -0.2175
     19 C           3.7530  -23.1500  -21.5580 C.3     1  UNL1        0.2337
     20 O           4.1050  -24.4600  -21.1260 O.3     1  UNL1       -0.2155
     21 C           4.3530  -22.7910  -22.9190 C.3     1  UNL1        0.2409
     22 N           5.7130  -22.2830  -22.7740 N.ar    1  UNL1       -0.2693
     23 C           6.1360  -21.3550  -21.8590 C.ar    1  UNL1        0.1816
     24 N           7.4280  -21.1460  -21.8700 N.ar    1  UNL1       -0.2193
     25 C           7.8910  -22.0000  -22.8630 C.ar    1  UNL1        0.1518
     26 C           9.1810  -22.2550  -23.3690 C.ar    1  UNL1        0.1919
     27 N          10.2830  -21.6610  -22.9090 N.pl3   1  UNL1       -0.1054
     28 N           9.3020  -23.1810  -24.3550 N.ar    1  UNL1       -0.2040
     29 C           8.2010  -23.8000  -24.7900 C.ar    1  UNL1        0.2016
     30 N           6.9360  -23.6360  -24.3890 N.ar    1  UNL1       -0.2048
     31 C           6.8480  -22.7220  -23.4160 C.ar    1  UNL1        0.1692
@<TRIPOS>BOND
     1     2     1    2
     2     3     1    1
     3     4     1    1
     4     6     5    2
     5     7     5    1
     6     8     5    1
     7     8     1    1
     8    10     9    2
     9    11     9    1
    10    12     9    1
    11    12     5    1
    12    13     9    1
    13    14    13    1
    14    15    14    1
    15    16    15    1
    16    17    15    1
    17    17    18    1
    18    19    17    1
    19    19    20    1
    20    21    19    1
    21    21    16    1
    22    21    22    1
    23    23    22   ar
    24    24    23   ar
    25    25    24   ar
    26    26    25   ar
    27    27    26    1
    28    28    26   ar
    29    29    28   ar
    30    30    29   ar
    31    31    30   ar
    32    31    25   ar
    33    31    22   ar
