@<TRIPOS>MOLECULE
8FP5_ATP_A302
 31 33 0 0 0
SMALL
GASTEIGER

@<TRIPOS>ATOM
      1 P           2.0750  -19.1440  -15.5790 P.3     1  UNL1        0.5373
      2 O           1.6360  -19.1010  -14.1550 O.2     1  UNL1       -0.2221
      3 O           3.5780  -19.5220  -15.7290 O.3     1  UNL1       -0.1143
      4 O           1.7780  -17.8720  -16.3750 O.3     1  UNL1       -0.1143
      5 P           1.4900  -21.2390  -17.5940 P.3     1  UNL1        0.2277
      6 O           2.7840  -21.9190  -17.5210 O.2     1  UNL1       -0.5168
      7 O           0.2450  -22.1370  -17.7650 O.3     1  UNL1       -0.4368
      8 O           1.2930  -20.2960  -16.3630 O.3     1  UNL1       -0.2258
      9 P           2.5790  -19.4600  -19.6520 P.3     1  UNL1        0.2189
     10 O           2.1410  -18.1230  -20.0960 O.2     1  UNL1       -0.5170
     11 O           3.8230  -19.3390  -18.8210 O.3     1  UNL1       -0.4371
     12 O           1.4840  -20.1880  -18.7820 O.3     1  UNL1       -0.2700
     13 O           2.7970  -20.5000  -20.8140 O.3     1  UNL1       -0.3112
     14 C           1.8360  -20.6470  -21.8790 C.3     1  UNL1        0.1813
     15 C           2.1450  -21.9600  -22.5510 C.3     1  UNL1        0.1801
     16 O           3.4110  -21.8550  -23.2430 O.3     1  UNL1       -0.3306
     17 C           2.2700  -23.1390  -21.5830 C.3     1  UNL1        0.2161
     18 O           1.7640  -24.3560  -22.1150 O.3     1  UNL1       -0.2175
     19 C           3.7810  -23.2570  -21.3940 C.3     1  UNL1        0.2337
     20 O           4.1780  -24.5710  -21.0170 O.3     1  UNL1       -0.2155
     21 C           4.2920  -22.8560  -22.7800 C.3     1  UNL1        0.2409
     22 N           5.6510  -22.3310  -22.7060 N.ar    1  UNL1       -0.2693
     23 C           6.1160  -21.4180  -21.7960 C.ar    1  UNL1        0.1816
     24 N           7.4020  -21.1890  -21.8810 N.ar    1  UNL1       -0.2193
     25 C           7.8150  -22.0120  -22.9210 C.ar    1  UNL1        0.1518
     26 C           9.0740  -22.2350  -23.5110 C.ar    1  UNL1        0.1919
     27 N          10.1940  -21.6350  -23.1050 N.pl3   1  UNL1       -0.1054
     28 N           9.1480  -23.1350  -24.5260 N.ar    1  UNL1       -0.2040
     29 C           8.0310  -23.7600  -24.9070 C.ar    1  UNL1        0.2016
     30 N           6.7900  -23.6260  -24.4260 N.ar    1  UNL1       -0.2048
     31 C           6.7490  -22.7370  -23.4270 C.ar    1  UNL1        0.1692
@<TRIPOS>BOND
     1     2     1    2
     2     3     1    1
     3     4     1    1
     4     6     5    2
     5     7     5    1
     6     8     5    1
     7     8     1    1
     8    10     9    2
     9    11     9    1
    10    12     9    1
    11    12     5    1
    12    13     9    1
    13    14    13    1
    14    15    14    1
    15    16    15    1
    16    17    15    1
    17    17    18    1
    18    19    17    1
    19    19    20    1
    20    21    16    1
    21    21    19    1
    22    21    22    1
    23    23    22   ar
    24    24    23   ar
    25    25    24   ar
    26    26    25   ar
    27    27    26    1
    28    28    26   ar
    29    29    28   ar
    30    30    29   ar
    31    31    30   ar
    32    31    25   ar
    33    31    22   ar
