@<TRIPOS>MOLECULE
8RU8_I74_A301
 60 63 0 0 0
SMALL
GASTEIGER

@<TRIPOS>ATOM
      1  O1         5.3160  -20.5550  -20.8030 O.3   301  I74301     -0.3933
      2  C42        4.1930  -21.3950  -20.5380 C.3   301  I74301      0.0444
      3  C43        3.8010  -21.2250  -19.0840 C.3   301  I74301     -0.0664
      4  N44        2.7030  -22.1600  -18.7280 N.4   301  I74301      0.3807
      5  C45        1.4920  -21.9290  -19.5570 C.3   301  I74301     -0.0929
      6  C46        1.8360  -22.0410  -21.0390 C.3   301  I74301     -0.0619
      7  C41        2.9760  -21.0940  -21.4120 C.3   301  I74301     -0.0029
      8  C40        3.2910  -21.1770  -22.9050 C.3   301  I74301      0.0155
      9  N18        3.8510  -22.4670  -23.2560 N.pl3 301  I74301     -0.3286
     10  C5         5.1680  -22.7220  -23.4870 C.ar  301  I74301      0.1244
     11  C4         5.4840  -23.9030  -24.1630 C.ar  301  I74301      0.0180
     12  C3         6.8000  -24.2060  -24.4560 C.ar  301  I74301      0.1260
     13  N2         7.7330  -23.2690  -24.1020 N.ar  301  I74301     -0.2003
     14  N1         9.0800  -23.3760  -24.3020 N.ar  301  I74301     -0.1714
     15  C9         9.5670  -22.2940  -23.7300 C.ar  301  I74301      0.0554
     16  C8         8.6250  -21.4600  -23.1420 C.ar  301  I74301      0.0192
     17  C26        8.9230  -20.2030  -22.3520 C.3   301  I74301     -0.0165
     18  C28        7.9710  -19.0580  -22.6330 C.3   301  I74301     -0.0585
     19  C27        8.9400  -20.4970  -20.8490 C.3   301  I74301     -0.0585
     20  C7         7.3960  -22.1390  -23.3750 C.ar  301  I74301      0.1629
     21  N6         6.1170  -21.8480  -23.0740 N.ar  301  I74301     -0.2129
     22  N10        7.2540  -25.3170  -25.1080 N.pl3 301  I74301     -0.3248
     23  C11        6.4770  -26.5410  -25.2360 C.3   301  I74301      0.0357
     24  C12        5.5800  -26.5490  -26.4460 C.ar  301  I74301     -0.0304
     25  C17        6.1000  -26.7720  -27.7060 C.ar  301  I74301     -0.0571
     26  C16        5.2810  -26.8170  -28.8090 C.ar  301  I74301     -0.0615
     27  C15        3.9310  -26.6230  -28.6640 C.ar  301  I74301     -0.0617
     28  C14        3.3960  -26.4100  -27.4180 C.ar  301  I74301     -0.0615
     29  C13        4.2160  -26.3780  -26.3160 C.ar  301  I74301     -0.0571
     30  H1         5.9640  -20.7960  -20.3030 H     301  I74301      0.2097
     31  H2         4.4580  -22.3330  -20.6850 H     301  I74301      0.0577
     32  H3         4.5760  -21.4010  -18.5100 H     301  I74301      0.0079
     33  H4         3.5040  -20.3030  -18.9270 H     301  I74301      0.0079
     34  H5         2.9930  -23.0220  -18.8530 H     301  I74301     -0.0858
     35  H7         0.8060  -22.5910  -19.3250 H     301  I74301      0.0054
     36  H8         1.1330  -21.0330  -19.3680 H     301  I74301      0.0054
     37  H9         2.0990  -22.9620  -21.2430 H     301  I74301      0.0251
     38  H10        1.0430  -21.8230  -21.5750 H     301  I74301      0.0251
     39  H11        2.6830  -20.1710  -21.2140 H     301  I74301      0.0339
     40  H12        3.9300  -20.4640  -23.1410 H     301  I74301      0.0465
     41  H13        2.4620  -21.0310  -23.4190 H     301  I74301      0.0465
     42  H14        3.2940  -23.1260  -23.3850 H     301  I74301      0.1475
     43  H15        4.7860  -24.4900  -24.4470 H     301  I74301      0.0686
     44  H16       10.4980  -22.1410  -23.6990 H     301  I74301      0.0851
     45  H17        9.8280  -19.9030  -22.6040 H     301  I74301      0.0345
     46  H18        7.0750  -19.2960  -22.3230 H     301  I74301      0.0235
     47  H19        8.2760  -18.2570  -22.1630 H     301  I74301      0.0235
     48  H20        7.9460  -18.8820  -23.5910 H     301  I74301      0.0235
     49  H21        9.4420  -21.3210  -20.6830 H     301  I74301      0.0235
     50  H22        9.3660  -19.7540  -20.3760 H     301  I74301      0.0235
     51  H23        8.0220  -20.6030  -20.5280 H     301  I74301      0.0235
     52  H24        8.0560  -25.3050  -25.4510 H     301  I74301      0.1478
     53  H25        7.0930  -27.3060  -25.2900 H     301  I74301      0.0511
     54  H26        5.9240  -26.6550  -24.4300 H     301  I74301      0.0511
     55  H27        7.0410  -26.9050  -27.8100 H     301  I74301      0.0621
     56  H28        5.6540  -26.9560  -29.6760 H     301  I74301      0.0618
     57  H29        3.3610  -26.6430  -29.4310 H     301  I74301      0.0618
     58  H30        2.4550  -26.2800  -27.3170 H     301  I74301      0.0618
     59  H31        3.8400  -26.2300  -25.4510 H     301  I74301      0.0621
     60  H32        2.4880  -22.0530  -17.8410 H     301  I74301     -0.0858
@<TRIPOS>BOND
     1    56    26    1
     2    57    27    1
     3    26    27   ar
     4    26    25   ar
     5    27    28   ar
     6    55    25    1
     7    25    24   ar
     8    28    58    1
     9    28    29   ar
    10    24    29   ar
    11    24    23    1
    12    29    59    1
    13    52    22    1
    14    53    23    1
    15    23    22    1
    16    23    54    1
    17    22    12    1
    18    12    11   ar
    19    12    13   ar
    20    43    11    1
    21    14    13   ar
    22    14    15   ar
    23    11    10   ar
    24    13    20   ar
    25    15    44    1
    26    15    16   ar
    27    48    18    1
    28    10     9    1
    29    10    21   ar
    30    41     8    1
    31    42     9    1
    32    20    16   ar
    33    20    21   ar
    34     9     8    1
    35    16    17    1
    36    40     8    1
    37     8     7    1
    38    18    17    1
    39    18    46    1
    40    18    47    1
    41    45    17    1
    42    17    19    1
    43    38     6    1
    44     7    39    1
    45     7     6    1
    46     7     2    1
    47    37     6    1
    48     6     5    1
    49    19    49    1
    50    19    51    1
    51    19    50    1
    52     1     2    1
    53     1    30    1
    54    31     2    1
    55     2     3    1
    56     5    36    1
    57     5    35    1
    58     5     4    1
    59     3    33    1
    60     3     4    1
    61     3    32    1
    62    34     4    1
    63     4    60    1
