@<TRIPOS>MOLECULE
9UAU_A1EOM_A301
 53 55 0 0 0
SMALL
GASTEIGER

@<TRIPOS>ATOM
      1 N           7.0100  -22.7660  -23.8600 N.ar    1  UNL1       -0.1964
      2 C           7.3770  -21.8410  -23.0180 C.ar    1  UNL1        0.1486
      3 C           5.0520  -21.4350  -22.8290 C.3     1  UNL1        0.0586
      4 C           6.7010  -20.1550  -21.5350 C.ar    1  UNL1        0.2704
      5 C           8.3880  -18.8520  -20.2470 C.1     1  UNL1        0.1046
      6 C           9.0250  -20.6420  -21.8780 C.ar    1  UNL1       -0.0270
      7 C           9.6230  -22.3990  -23.4350 C.ar    1  UNL1        0.0419
      8 C           4.4470  -26.4920  -26.5810 C.3     1  UNL1        0.0218
      9 C           1.5830  -27.7010  -25.2240 C.3     1  UNL1        0.0707
     10 C           4.5790  -26.7180  -24.1160 C.3     1  UNL1        0.0218
     11 C           5.9460  -26.0240  -24.0720 C.3     1  UNL1       -0.0200
     12 C           6.0980  -25.0890  -25.2750 C.3     1  UNL1        0.0257
     13 C           7.9190  -23.5290  -24.4990 C.ar    1  UNL1        0.2173
     14 C           4.0900  -21.7270  -21.7370 C.3     1  UNL1        0.0827
     15 C           3.3440  -24.1440  -21.7230 C.cat   1  UNL1        0.3763
     16 C           8.0390  -19.9270  -21.2560 C.ar    1  UNL1        0.1168
     17 C           8.6970  -21.6250  -22.7680 C.ar    1  UNL1        0.0372
     18 C           5.8290  -25.8770  -26.5570 C.3     1  UNL1       -0.0200
     19 N           4.3290  -27.3180  -25.4110 N.3     1  UNL1       -0.1813
     20 N           7.4370  -24.5390  -25.4080 N.pl3   1  UNL1       -0.3105
     21 N           6.3990  -21.1270  -22.4120 N.ar    1  UNL1       -0.2886
     22 N           4.2170  -23.0760  -21.2820 N.pl3   1  UNL1       -0.2744
     23 N           3.5490  -25.4200  -21.1090 N.pl3   1  UNL1       -0.2893
     24 N           2.4370  -24.0350  -22.5890 N.pl3   1  UNL1       -0.1298
     25 N           8.6040  -18.0350  -19.4960 N.1     1  UNL1       -0.1907
     26 N           9.2300  -23.3470  -24.2870 N.ar    1  UNL1       -0.2222
     27 O           3.2400  -29.2220  -26.7220 O.2     1  UNL1       -0.1583
     28 O           3.4130  -29.4900  -24.3790 O.2     1  UNL1       -0.1583
     29 O           5.8160  -19.5230  -21.0190 O.2     1  UNL1       -0.2662
     30 S           3.1770  -28.5260  -25.4590 S.O2    1  UNL1        0.0290
     31 H           5.0900  -22.2120  -23.4080 H       1  UNL1        0.0524
     32 H           4.7130  -20.6760  -23.3290 H       1  UNL1        0.0524
     33 H           9.9180  -20.4580  -21.6940 H       1  UNL1        0.0640
     34 H          10.5300  -22.2580  -23.2880 H       1  UNL1        0.0838
     35 H           4.3380  -27.0310  -27.3800 H       1  UNL1        0.0444
     36 H           3.7730  -25.7950  -26.5640 H       1  UNL1        0.0444
     37 H           1.2800  -27.3350  -26.0700 H       1  UNL1        0.0479
     38 H           1.6830  -26.9830  -24.5790 H       1  UNL1        0.0479
     39 H           0.9320  -28.3410  -24.8960 H       1  UNL1        0.0479
     40 H           4.5550  -27.4110  -23.4390 H       1  UNL1        0.0444
     41 H           3.8870  -26.0620  -23.9360 H       1  UNL1        0.0444
     42 H           6.0170  -25.5070  -23.2540 H       1  UNL1        0.0296
     43 H           6.6470  -26.6940  -24.0960 H       1  UNL1        0.0296
     44 H           5.4720  -24.3620  -25.1350 H       1  UNL1        0.0499
     45 H           3.1870  -21.5880  -22.0650 H       1  UNL1        0.0673
     46 H           4.2600  -21.1270  -20.9950 H       1  UNL1        0.0673
     47 H           5.9140  -25.2770  -27.3140 H       1  UNL1        0.0296
     48 H           6.4850  -26.5880  -26.6280 H       1  UNL1        0.0296
     49 H           7.9490  -24.8200  -26.0380 H       1  UNL1        0.1492
     50 H           4.8420  -23.2630  -20.7210 H       1  UNL1        0.2579
     51 H           3.0700  -26.0930  -21.3550 H       1  UNL1        0.2546
     52 H           4.1790  -25.5270  -20.5340 H       1  UNL1        0.2546
     53 H           2.2640  -23.2520  -22.9670 H       1  UNL1        0.3062
@<TRIPOS>BOND
     1     2     1   ar
     2    11    10    1
     3    12    11    1
     4    13     1   ar
     5    14     3    1
     6    16     6   ar
     7    16     5    1
     8    16     4   ar
     9    17     7   ar
    10    17     2   ar
    11    17     6   ar
    12    18     8    1
    13    18    12    1
    14    19    10    1
    15    19     8    1
    16    20    13    1
    17    20    12    1
    18    21     3    1
    19    21     2   ar
    20    21     4   ar
    21    22    15    1
    22    22    14    1
    23    23    15    1
    24    24    15    2
    25    25     5    3
    26    26    13   ar
    27    26     7   ar
    28    29     4    2
    29    30    28    2
    30    30    27    2
    31    30    19    1
    32    30     9    1
    33     3    31    1
    34    32     3    1
    35    33     6    1
    36    34     7    1
    37     8    35    1
    38    36     8    1
    39     9    37    1
    40    38     9    1
    41    39     9    1
    42    10    40    1
    43    41    10    1
    44    11    42    1
    45    43    11    1
    46    12    44    1
    47    14    45    1
    48    46    14    1
    49    18    47    1
    50    48    18    1
    51    49    20    1
    52    50    22    1
    53    51    23    1
    54    52    23    1
    55    53    24    1
