@<TRIPOS>MOLECULE
4EOJ_SGM_B502
 6 5 0 0 0
SMALL
GASTEIGER

@<TRIPOS>ATOM
      1 C          -2.2900  -22.2260  -20.4940 C.3     1  UNL1        0.1042
      2 C          -3.6010  -21.6380  -21.0240 C.3     1  UNL1        0.1963
      3 O          -4.2200  -20.7650  -20.0650 O.3     1  UNL1       -0.2194
      4 C          -4.5470  -22.7720  -21.4040 C.3     1  UNL1        0.2157
      5 O          -5.8980  -22.2860  -21.4140 O.3     1  UNL1       -0.2176
      6 S          -1.6390  -21.4100  -19.0080 S.3     1  UNL1       -0.0793
@<TRIPOS>BOND
     1     2     1    1
     2     2     3    1
     3     4     2    1
     4     5     4    1
     5     6     1    1
