@<TRIPOS>MOLECULE
7QHL_SGM_B503
 6 5 0 0 0
SMALL
GASTEIGER

@<TRIPOS>ATOM
      1 C          -0.4240  -19.6790  -23.5520 C.3     1  UNL1        0.1042
      2 C          -1.8630  -19.7240  -24.0520 C.3     1  UNL1        0.1963
      3 O          -1.8370  -20.0090  -25.4590 O.3     1  UNL1       -0.2194
      4 C          -2.6670  -18.4510  -23.8710 C.3     1  UNL1        0.2157
      5 O          -2.0950  -17.5850  -22.8950 O.3     1  UNL1       -0.2176
      6 S          -0.0030  -19.4330  -21.8000 S.3     1  UNL1       -0.0793
@<TRIPOS>BOND
     1     2     1    1
     2     2     3    1
     3     4     2    1
     4     5     4    1
     5     6     1    1
