2XYT_TC9_F1206
     RDKit          3D

 45 51  0  0  0  0  0  0  0  0999 V2000
  167.8270  115.2890  180.9160 N   0  0  0  0  0  0  0  0  0  0  0  0
  167.4300  114.1640  181.7070 C   0  0  0  0  0  0  0  0  0  0  0  0
  168.0050  114.1080  183.0890 C   0  0  0  0  0  0  0  0  0  0  0  0
  168.4360  115.4130  183.6810 C   0  0  0  0  0  0  0  0  0  0  0  0
  168.1900  116.6290  182.9880 C   0  0  0  0  0  0  0  0  0  0  0  0
  167.5180  116.5920  181.6420 C   0  0  0  0  0  0  0  0  0  0  0  0
  169.0880  115.4460  184.9440 C   0  0  0  0  0  0  0  0  0  0  0  0
  169.5060  116.6850  185.5080 C   0  0  0  0  0  0  0  0  0  0  0  0
  169.2570  117.8990  184.8070 C   0  0  0  0  0  0  0  0  0  0  0  0
  168.6010  117.8650  183.5440 C   0  0  0  0  0  0  0  0  0  0  0  0
  169.6700  119.1370  185.3840 O   0  0  0  0  0  0  0  0  0  0  0  0
  169.7420  120.1560  184.3910 C   0  0  0  0  0  0  0  0  0  0  0  0
  170.9700  120.4110  183.7410 C   0  0  0  0  0  0  0  0  0  0  0  0
  171.0480  121.3770  182.7670 C   0  0  0  0  0  0  0  0  0  0  0  0
  169.8980  122.1120  182.4250 C   0  0  0  0  0  0  0  0  0  0  0  0
  168.6870  121.8670  183.0720 C   0  0  0  0  0  0  0  0  0  0  0  0
  168.5960  120.8890  184.0500 C   0  0  0  0  0  0  0  0  0  0  0  0
  167.4430  122.6780  182.6110 C   0  0  0  0  0  0  0  0  0  0  0  0
  166.5290  123.3410  183.6860 C   0  0  0  0  0  0  0  0  0  0  0  0
  167.0660  124.4390  184.4550 N   0  0  2  0  0  0  0  0  0  0  0  0
  167.2090  125.7110  183.7770 C   0  0  0  0  0  0  0  0  0  0  0  0
  166.7170  125.8420  182.3540 C   0  0  0  0  0  0  0  0  0  0  0  0
  165.5050  125.0250  182.0720 C   0  0  0  0  0  0  0  0  0  0  0  0
  165.3550  123.8030  182.7750 C   0  0  0  0  0  0  0  0  0  0  0  0
  164.5130  125.4580  181.1480 C   0  0  0  0  0  0  0  0  0  0  0  0
  163.3930  124.6710  180.9300 C   0  0  0  0  0  0  0  0  0  0  0  0
  163.2450  123.4250  181.6340 C   0  0  0  0  0  0  0  0  0  0  0  0
  164.2570  122.9910  182.5440 C   0  0  0  0  0  0  0  0  0  0  0  0
  164.0860  121.8340  183.3330 O   0  0  0  0  0  0  0  0  0  0  0  0
  164.5920  120.6200  182.8600 C   0  0  0  0  0  0  0  0  0  0  0  0
  164.9560  119.6490  183.8220 C   0  0  0  0  0  0  0  0  0  0  0  0
  165.4100  118.3970  183.4180 C   0  0  0  0  0  0  0  0  0  0  0  0
  165.5060  118.1050  182.0740 C   0  0  0  0  0  0  0  0  0  0  0  0
  165.1270  119.0750  181.0960 C   0  0  0  0  0  0  0  0  0  0  0  0
  164.6670  120.3210  181.4920 C   0  0  0  0  0  0  0  0  0  0  0  0
  165.9770  116.7320  181.6540 C   0  0  0  0  0  0  0  0  0  0  0  0
  170.1350  116.7250  186.7680 O   0  0  0  0  0  0  0  0  0  0  0  0
  170.9670  115.6690  187.2120 C   0  0  0  0  0  0  0  0  0  0  0  0
  172.0970  119.6780  184.0630 O   0  0  0  0  0  0  0  0  0  0  0  0
  162.4200  125.0890  180.0320 O   0  0  0  0  0  0  0  0  0  0  0  0
  162.7770  125.6400  178.8300 C   0  0  0  0  0  0  0  0  0  0  0  0
  162.1250  122.6370  181.4130 O   0  0  0  0  0  0  0  0  0  0  0  0
  167.5400  114.8500  179.5470 C   0  0  0  0  0  0  0  0  0  0  0  0
  168.3650  124.0610  185.0450 C   0  0  0  0  0  0  0  0  0  0  0  0
  166.1520  124.6400  185.6080 C   0  0  0  0  0  0  0  0  0  0  0  0
  2  1  1  0
  3  2  1  0
  4  3  1  0
  5  4  2  0
  6  5  1  0
  6  1  1  0
  7  4  1  0
  8  7  2  0
  9  8  1  0
 10  5  1  0
 10  9  2  0
 11  9  1  0
 12 11  1  0
 13 12  2  0
 14 13  1  0
 15 14  2  0
 16 15  1  0
 17 16  2  0
 17 12  1  0
 18 16  1  0
 19 18  1  0
 20 19  1  0
 21 20  1  0
 22 21  1  0
 23 22  1  0
 24 23  2  0
 24 19  1  0
 25 23  1  0
 26 25  2  0
 27 26  1  0
 28 27  2  0
 28 24  1  0
 29 28  1  0
 30 29  1  0
 31 30  2  0
 32 31  1  0
 33 32  2  0
 34 33  1  0
 35 34  2  0
 35 30  1  0
 36 33  1  0
 36  6  1  0
 37  8  1  0
 38 37  1  0
 39 13  1  0
 40 26  1  0
 41 40  1  0
 42 27  1  0
 43  1  1  0
 20 44  1  1
 45 20  1  0
M  CHG  2   1   1  20   1
M  END
>  <_TriposChargeType>  (1) 
GASTEIGER

$$$$
