1URW_I1P_A1300
     RDKit          3D

 32 35  0  0  0  0  0  0  0  0999 V2000
    6.8030  -26.3970  -26.5730 C   0  0  0  0  0  0  0  0  0  0  0  0
    7.5650  -18.4090  -19.2840 C   0  0  0  0  0  0  0  0  0  0  0  0
    6.3820  -19.1100  -19.4910 C   0  0  0  0  0  0  0  0  0  0  0  0
    7.4400  -21.6540  -21.8820 C   0  0  0  0  0  0  0  0  0  0  0  0
    8.7670  -18.7500  -19.8930 C   0  0  0  0  0  0  0  0  0  0  0  0
    6.4430  -20.3070  -20.4960 C   0  0  0  0  0  0  0  0  0  0  0  0
    8.8490  -19.7710  -20.7370 N   0  0  0  0  0  0  0  0  0  0  0  0
    9.7910  -22.1170  -22.5960 C   0  0  0  0  0  0  0  0  0  0  0  0
    8.3720  -22.3440  -22.7200 C   0  0  0  0  0  0  0  0  0  0  0  0
    6.0230  -21.9560  -21.7210 C   0  0  0  0  0  0  0  0  0  0  0  0
    6.9840  -25.5190  -25.4660 C   0  0  0  0  0  0  0  0  0  0  0  0
    8.8180  -23.8750  -24.4330 C   0  0  0  0  0  0  0  0  0  0  0  0
   10.6410  -22.8490  -23.4700 C   0  0  0  0  0  0  0  0  0  0  0  0
    7.9320  -23.2340  -23.6540 N   0  0  0  0  0  0  0  0  0  0  0  0
    5.9360  -25.3950  -24.4920 C   0  0  0  0  0  0  0  0  0  0  0  0
    4.7500  -26.1370  -24.6140 C   0  0  0  0  0  0  0  0  0  0  0  0
    4.6010  -27.0100  -25.7130 C   0  0  0  0  0  0  0  0  0  0  0  0
    7.6870  -20.5080  -21.0960 N   0  0  0  0  0  0  0  0  0  0  0  0
    5.3710  -21.0870  -20.8280 N   0  0  0  0  0  0  0  0  0  0  0  0
   10.1440  -23.7130  -24.3720 N   0  0  0  0  0  0  0  0  0  0  0  0
    8.2360  -24.8030  -25.3720 N   0  0  0  0  0  0  0  0  0  0  0  0
    5.6110  -27.1470  -26.7010 C   0  0  0  0  0  0  0  0  0  0  0  0
    3.1540  -27.9660  -25.8460 S   0  0  2  0  0  0  0  0  0  0  0  0
    1.8370  -27.0650  -25.1540 N   0  0  0  0  0  0  0  0  0  0  0  0
    1.3670  -25.9950  -26.0620 C   0  0  0  0  0  0  0  0  0  0  0  0
   -0.1040  -25.6530  -25.7930 C   0  0  0  0  0  0  0  0  0  0  0  0
   -1.0580  -26.8660  -26.0050 C   0  0  0  0  0  0  0  0  0  0  0  0
   -2.5380  -26.5900  -26.0910 N   0  0  0  0  0  0  0  0  0  0  0  0
   -2.9920  -26.0590  -27.4070 C   0  0  0  0  0  0  0  0  0  0  0  0
   -3.0330  -25.7160  -24.9730 C   0  0  0  0  0  0  0  0  0  0  0  0
    3.3370  -29.3020  -25.0100 O   0  0  0  0  0  0  0  0  0  0  0  0
    2.8490  -28.3080  -27.3600 O   0  0  0  0  0  0  0  0  0  0  0  0
  3  2  2  0
  5  2  1  0
  6  3  1  0
  7  5  2  0
  9  8  2  0
  9  4  1  0
 10  4  2  0
 11  1  2  0
 13  8  1  0
 14 12  2  0
 14  9  1  0
 15 11  1  0
 16 15  2  0
 17 16  1  0
 18  4  1  0
 18  7  1  0
 18  6  1  0
 19 10  1  0
 19  6  2  0
 20 13  2  0
 20 12  1  0
 21 12  1  0
 21 11  1  0
 22 17  2  0
 22  1  1  0
 23 17  1  0
 23 24  1  1
 25 24  1  0
 26 25  1  0
 27 26  1  0
 28 27  1  0
 29 28  1  0
 30 28  1  0
 31 23  2  0
 32 23  2  0
M  END
>  <_TriposChargeType>  (1) 
GASTEIGER

$$$$
