9KE3_A1EFR_B707
     RDKit          3D

 29 31  0  0  0  0  0  0  0  0999 V2000
  126.3840  122.8330  131.3790 C   0  0  0  0  0  0  0  0  0  0  0  0
  129.6860  127.8200  132.3600 C   0  0  0  0  0  0  0  0  0  0  0  0
  127.5820  123.7290  131.8680 C   0  0  0  0  0  0  0  0  0  0  0  0
  128.5980  126.7620  132.3550 C   0  0  0  0  0  0  0  0  0  0  0  0
  127.6940  125.0250  131.1220 C   0  0  0  0  0  0  0  0  0  0  0  0
  129.4390  129.5480  131.1150 C   0  0  0  0  0  0  0  0  0  0  0  0
  130.2780  130.4240  130.1510 C   0  0  0  0  0  0  0  0  0  0  0  0
  129.7380  131.5660  129.6270 C   0  0  0  0  0  0  0  0  0  0  0  0
  130.4920  132.3550  128.7580 C   0  0  0  0  0  0  0  0  0  0  0  0
  131.8040  131.9940  128.4300 C   0  0  0  0  0  0  0  0  0  0  0  0
  132.3390  130.8640  128.9570 C   0  0  0  0  0  0  0  0  0  0  0  0
  131.5800  130.0670  129.8270 C   0  0  0  0  0  0  0  0  0  0  0  0
  120.6560  117.3250  127.9930 C   0  0  0  0  0  0  0  0  0  0  0  0
  121.6740  118.3280  128.5890 C   0  0  0  0  0  0  0  0  0  0  0  0
  122.9910  117.9780  128.6850 C   0  0  0  0  0  0  0  0  0  0  0  0
  123.9820  118.9300  129.2520 C   0  0  0  0  0  0  0  0  0  0  0  0
  124.3190  120.0870  128.5590 C   0  0  0  0  0  0  0  0  0  0  0  0
  125.2920  121.0150  129.1150 C   0  0  0  0  0  0  0  0  0  0  0  0
  125.8940  120.7480  130.3560 C   0  0  0  0  0  0  0  0  0  0  0  0
  125.5450  119.5430  131.0720 C   0  0  0  0  0  0  0  0  0  0  0  0
  124.6110  118.6490  130.5370 C   0  0  0  0  0  0  0  0  0  0  0  0
  129.2820  127.5960  130.1180 C   0  0  0  0  0  0  0  0  0  0  0  0
  129.4550  126.0690  130.3390 C   0  0  0  0  0  0  0  0  0  0  0  0
  126.3040  121.8500  127.1700 C   0  0  0  0  0  0  0  0  0  0  0  0
  128.8550  125.6670  131.4330 N   0  0  0  0  0  0  0  0  0  0  0  0
  129.9010  128.3570  131.1380 N   0  0  0  0  0  0  0  0  0  0  0  0
  126.8630  121.6440  130.9170 O   0  0  0  0  0  0  0  0  0  0  0  0
  128.8310  122.9840  131.6840 O   0  0  0  0  0  0  0  0  0  0  0  0
  125.5970  122.1140  128.4380 O   0  0  0  0  0  0  0  0  0  0  0  0
  3  1  1  0
  4  2  1  0
  5  3  1  0
  7  6  1  0
  8  7  2  0
  9  8  1  0
 10  9  2  0
 11 10  1  0
 12  7  1  0
 12 11  2  0
 14 13  1  0
 15 14  2  3
 16 15  1  0
 17 16  2  0
 18 17  1  0
 19 18  2  0
 20 19  1  0
 21 16  1  0
 21 20  2  0
 23 22  1  0
 25  5  1  0
 25 23  1  0
 25  4  1  0
 26 22  1  0
 26  6  1  0
 26  2  1  0
 27 19  1  0
 27  1  1  0
  3 28  1  0
 29 18  1  0
 29 24  1  0
M  CHG  2  25   1  26   1
M  END
>  <_TriposChargeType>  (1) 
GASTEIGER

$$$$
