8WTY_XEF_A701
     RDKit          3D

 28 32  0  0  0  0  0  0  0  0999 V2000
  129.1860  129.2580  131.2120 C   0  0  0  0  0  0  0  0  0  0  0  0
  128.1750  123.1480  130.9280 C   0  0  0  0  0  0  0  0  0  0  0  0
  126.9960  122.2160  130.4940 C   0  0  0  0  0  0  0  0  0  0  0  0
  127.6520  124.2390  131.8710 C   0  0  0  0  0  0  0  0  0  0  0  0
  129.9200  126.8110  130.9180 C   0  0  0  0  0  0  0  0  0  0  0  0
  127.9850  126.1460  132.8130 C   0  0  0  0  0  0  0  0  0  0  0  0
  128.9660  125.6220  130.8020 C   0  0  0  0  0  0  0  0  0  0  0  0
  128.8760  127.3860  132.9790 C   0  0  0  0  0  0  0  0  0  0  0  0
  130.2690  130.0390  130.3310 C   0  0  0  0  0  0  0  0  0  0  0  0
  125.2740  121.3540  128.6330 C   0  0  0  0  0  0  0  0  0  0  0  0
  126.4520  122.2860  129.0630 C   0  0  0  0  0  0  0  0  0  0  0  0
  124.6730  120.3810  129.6250 C   0  0  0  0  0  0  0  0  0  0  0  0
  126.3720  121.2130  131.5090 C   0  0  0  0  0  0  0  0  0  0  0  0
  124.5440  121.1970  127.3310 C   0  0  0  0  0  0  0  0  0  0  0  0
  129.7640  131.3650  130.0520 C   0  0  0  0  0  0  0  0  0  0  0  0
  125.2160  120.3020  131.0710 C   0  0  0  0  0  0  0  0  0  0  0  0
  123.4810  120.1200  127.5130 C   0  0  0  0  0  0  0  0  0  0  0  0
  131.6720  129.5770  129.7920 C   0  0  0  0  0  0  0  0  0  0  0  0
  130.6110  132.3510  129.2130 C   0  0  0  0  0  0  0  0  0  0  0  0
  132.5030  130.5250  128.9760 C   0  0  0  0  0  0  0  0  0  0  0  0
  131.9760  131.9150  128.6790 C   0  0  0  0  0  0  0  0  0  0  0  0
  128.5300  125.1630  132.0330 N   0  0  0  0  0  0  0  0  0  0  0  0
  129.3260  127.8820  131.6920 N   0  0  0  0  0  0  0  0  0  0  0  0
  128.0650  130.1400  131.4320 N   0  0  0  0  0  0  0  0  0  0  0  0
  123.5660  119.6230  128.9290 N   0  0  0  0  0  0  0  0  0  0  0  0
  122.7250  119.7430  126.6920 O   0  0  0  0  0  0  0  0  0  0  0  0
  128.3710  131.4870  130.7240 S   0  0  0  0  0  0  0  0  0  0  0  0
  126.9940  121.1170  133.1810 Cl  0  0  0  0  0  0  0  0  0  0  0  0
  3  2  1  0
  4  2  1  0
  7  5  1  0
  8  6  1  0
  9  1  1  0
 11 10  2  0
 11  3  1  0
 12 10  1  0
 13  3  2  0
 14 10  1  0
 15  9  1  0
 16 12  2  0
 16 13  1  0
 17 14  1  0
 18  9  2  0
 19 15  2  0
 20 18  1  0
 21 19  1  0
 21 20  2  0
 22  4  1  0
 22  7  1  0
 22  6  1  0
 23  8  1  0
 23  5  1  0
 23  1  1  0
 24  1  2  0
 25 17  1  0
 25 12  1  0
 26 17  2  0
 27 24  1  0
 27 15  1  0
 28 13  1  0
M  END
>  <_TriposChargeType>  (1) 
GASTEIGER

$$$$
