@<TRIPOS>MOLECULE
5OLV_9Y2_A1201
 24 25 0 0 0
SMALL
GASTEIGER

@<TRIPOS>ATOM
      1 C           2.2350   97.8710   54.0710 C.ar    1  UNL1        0.1577
      2 C           2.5630   95.7610   52.9800 C.ar    1  UNL1        0.0600
      3 C           4.4040   96.8460   54.0280 C.ar    1  UNL1        0.1577
      4 C           2.0110   94.5530   52.2820 C.2     1  UNL1        0.2708
      5 C           0.0820   93.5300   51.2470 C.ar    1  UNL1        0.1861
      6 C          -1.6090   92.2920   50.4580 C.ar    1  UNL1        0.1079
      7 C           2.9190  100.5590   57.7440 C.3     1  UNL1        0.0005
      8 C           3.4980  101.7160   56.9440 C.3     1  UNL1        0.0087
      9 C           2.3440  102.3190   56.1830 C.3     1  UNL1        0.0005
     10 C           4.0530  102.7440   57.9330 C.3     1  UNL1        0.0005
     11 C           4.5880  101.2810   55.9510 C.3     1  UNL1        0.0872
     12 C           4.0480  100.3350   54.8740 C.2     1  UNL1        0.2457
     13 C           3.6000   97.9020   54.3720 C.ar    1  UNL1        0.1280
     14 C           1.7000   96.7880   53.3670 C.ar    1  UNL1        0.0357
     15 C           3.9020   95.7530   53.3330 C.ar    1  UNL1        0.0357
     16 C          -0.6270   91.3340   50.3380 C.ar    1  UNL1        0.0588
     17 F           1.4430   98.8970   54.4410 F       1  UNL1       -0.2027
     18 F           5.6840   96.8850   54.3330 F       1  UNL1       -0.2027
     19 N           4.1100   98.9680   55.1600 N.am    1  UNL1       -0.1746
     20 N           0.6980   94.6390   51.8140 N.am    1  UNL1       -0.1505
     21 N          -1.2090   93.4630   50.9600 N.ar    1  UNL1       -0.2209
     22 O           3.6330  100.6830   53.7810 O.2     1  UNL1       -0.2730
     23 O           2.6790   93.5260   52.2630 O.2     1  UNL1       -0.2679
     24 S           0.8470   92.0260   50.9080 S.2     1  UNL1       -0.0491
@<TRIPOS>BOND
     1     4     2    1
     2     8     7    1
     3     9     8    1
     4    10     8    1
     5    11     8    1
     6    12    11    1
     7    13     3   ar
     8    13     1   ar
     9    14     2   ar
    10    14     1   ar
    11    15     3   ar
    12    15     2   ar
    13    16     6   ar
    14    17     1    1
    15    18     3    1
    16    19    13    1
    17    19    12   am
    18    20     5    1
    19    20     4   am
    20    21     6   ar
    21    21     5   ar
    22    22    12    2
    23    23     4    2
    24    24    16   ar
    25    24     5   ar
