@<TRIPOS>MOLECULE
7INL_A1COY_A1234
 9 9 0 0 0
SMALL
GASTEIGER

@<TRIPOS>ATOM
      1 C           2.1280   93.1680   51.6770 C.3     1  UNL1        0.0754
      2 C           1.1100   94.3020   51.7140 C.ar    1  UNL1        0.1549
      3 C           1.2730   95.5310   52.3400 C.ar    1  UNL1        0.0599
      4 C           0.1030   96.2420   52.1180 C.ar    1  UNL1        0.1459
      5 C          -0.2010   97.6470   52.6090 C.2     1  UNL1        0.1453
      6 N          -1.5210   98.1930   52.3760 N.am    1  UNL1       -0.1188
      7 N          -0.7140   95.4980   51.3960 N.ar    1  UNL1       -0.0754
      8 O          -0.1110   94.3020   51.1430 O.2     1  UNL1       -0.3577
      9 S           0.9160   98.5060   53.3680 S.2     1  UNL1       -0.0296
@<TRIPOS>BOND
     1     2     1    1
     2     3     2   ar
     3     4     3   ar
     4     5     4    1
     5     6     5    1
     6     7     4   ar
     7     8     7   ar
     8     8     2   ar
     9     9     5    2
