@<TRIPOS>MOLECULE
4XPH_42J_A602
 11 11 0 0 0
SMALL
GASTEIGER

@<TRIPOS>ATOM
      1 CL        129.0800  131.3880  130.1830 Cl      1  UNL1       -0.0814
      2 C         130.0790  130.2770  131.1740 C.ar    1  UNL1        0.0679
      3 C         131.4340  130.1730  130.9160 C.ar    1  UNL1        0.0682
      4 CL        132.1630  131.1520  129.5980 Cl      1  UNL1       -0.0814
      5 C         132.2240  129.3170  131.6750 C.ar    1  UNL1        0.0119
      6 C         131.6500  128.5660  132.6920 C.ar    1  UNL1       -0.0033
      7 C         129.5000  129.5300  132.1920 C.ar    1  UNL1        0.0080
      8 C         130.2870  128.6700  132.9490 C.ar    1  UNL1       -0.0198
      9 C         129.6630  127.8540  134.0580 C.3     1  UNL1        0.0469
     10 C         130.5530  126.6580  134.3850 C.3     1  UNL1        0.1140
     11 N         130.1000  125.4980  133.6430 N.3     1  UNL1       -0.1310
@<TRIPOS>BOND
     1     2     1    1
     2     3     2   ar
     3     4     3    1
     4     5     3   ar
     5     6     5   ar
     6     7     2   ar
     7     8     7   ar
     8     8     6   ar
     9     9     8    1
    10    10     9    1
    11    11    10    1
