@<TRIPOS>MOLECULE
6M47_F1U_A608
 19 20 0 0 0
SMALL
GASTEIGER

@<TRIPOS>ATOM
      1 C         130.3700  130.4020  133.7260 C.ar    1  UNL1        0.0081
      2 C         129.2100  130.9440  133.3080 C.ar    1  UNL1        0.0350
      3 C         128.9660  131.0750  131.9810 C.ar    1  UNL1        0.1385
      4 C         129.8830  130.6820  131.0740 C.ar    1  UNL1        0.0369
      5 C         129.6130  125.9520  134.5480 C.3     1  UNL1        0.0897
      6 C         129.6850  128.0280  135.4070 C.3     1  UNL1        0.0749
      7 C         130.9170  128.8710  135.6600 C.3     1  UNL1        0.0479
      8 C         131.0610  128.9850  137.1510 C.3     1  UNL1        0.0042
      9 C         132.2670  129.8220  137.4750 C.3     1  UNL1        0.0002
     10 C         132.0000  131.2210  136.9830 C.3     1  UNL1        0.0029
     11 C         131.8100  131.1540  135.4900 C.3     1  UNL1        0.0347
     12 C         130.6470  130.2750  135.1970 C.3     1  UNL1        0.1466
     13 C         131.0500  130.1470  131.5060 C.ar    1  UNL1        0.0029
     14 C         131.2970  130.0150  132.8370 C.ar    1  UNL1       -0.0017
     15 C         127.6430  131.7610  130.2100 C.3     1  UNL1        0.2525
     16 C         131.1160  126.2990  136.2130 C.3     1  UNL1        0.0897
     17 N         129.7990  126.6480  135.7720 N.3     1  UNL1       -0.2702
     18 O         127.7720  131.6210  131.5780 O.3     1  UNL1       -0.4714
     19 O         129.6240  130.8140  135.9080 O.3     1  UNL1       -0.2211
@<TRIPOS>BOND
     1     2     1   ar
     2     3     2   ar
     3     4     3   ar
     4     7     6    1
     5     8     7    1
     6     9     8    1
     7    10     9    1
     8    11    10    1
     9    12     1    1
    10    12     7    1
    11    12    11    1
    12    13     4   ar
    13    14     1   ar
    14    14    13   ar
    15    17     6    1
    16    17     5    1
    17    17    16    1
    18    18    15    1
    19    18     3    1
    20    12    19    1
