@<TRIPOS>MOLECULE
7WGT_9BC_A701
 26 28 0 0 0
SMALL
GASTEIGER

@<TRIPOS>ATOM
      1 C         129.7160  125.7590  133.8260 C.3     1  UNL1        0.0433
      2 C         130.4290  126.7750  132.7490 C.3     1  UNL1        0.0772
      3 C         132.0550  127.3690  134.4820 C.3     1  UNL1        0.1056
      4 C         131.8970  126.0510  135.0480 C.2     1  UNL1        0.0694
      5 C         130.6760  125.1760  134.6600 C.2     1  UNL1       -0.0210
      6 C         133.1470  125.3450  135.5370 C.2     1  UNL1        0.3848
      7 C         131.6690  128.6340  132.3800 C.3     1  UNL1        0.1233
      8 C         130.9370  129.9720  132.2470 C.3     1  UNL1        0.2557
      9 C         128.5200  130.4850  134.8570 C.2     1  UNL1        0.1193
     10 C         129.2030  131.4770  135.8320 C.ar    1  UNL1        0.0208
     11 C         130.4860  131.2650  136.3240 C.ar    1  UNL1        0.0016
     12 C         131.0680  132.1800  137.1870 C.ar    1  UNL1        0.0000
     13 C         130.3740  133.3160  137.5780 C.ar    1  UNL1        0.0000
     14 C         129.0940  133.5390  137.0980 C.ar    1  UNL1        0.0000
     15 C         128.5170  132.6230  136.2290 C.ar    1  UNL1        0.0016
     16 C         127.0680  130.0810  135.1670 C.ar    1  UNL1        0.0208
     17 C         126.0970  130.0070  134.1760 C.ar    1  UNL1        0.0016
     18 C         124.7810  129.6650  134.5050 C.ar    1  UNL1        0.0000
     19 C         124.4350  129.3850  135.8200 C.ar    1  UNL1        0.0000
     20 C         125.4040  129.4640  136.8050 C.ar    1  UNL1        0.0000
     21 C         126.7030  129.8170  136.4760 C.ar    1  UNL1        0.0016
     22 N         130.9900  127.7900  133.3550 N.3     1  UNL1       -0.2652
     23 N         129.1200  130.0430  133.8230 N.2     1  UNL1       -0.0830
     24 O         133.0240  124.4780  136.4440 O.co2   1  UNL1       -0.2409
     25 O         134.2720  125.6270  135.0210 O.co2   1  UNL1       -0.2409
     26 O         130.4740  130.4000  133.5130 O.2     1  UNL1       -0.3758
@<TRIPOS>BOND
     1     2     1    1
     2     4     3    1
     3     5     1    1
     4     5     4    2
     5     6     4    1
     6     8     7    1
     7    10     9    1
     8    11    10   ar
     9    12    11   ar
    10    13    12   ar
    11    14    13   ar
    12    15    10   ar
    13    15    14   ar
    14    16     9    1
    15    17    16   ar
    16    18    17   ar
    17    19    18   ar
    18    20    19   ar
    19    21    16   ar
    20    21    20   ar
    21    22     2    1
    22    22     7    1
    23    22     3    1
    24    23     9    2
    25    24     6   ar
    26    25     6   ar
    27    26    23    1
    28    26     8    1
