@<TRIPOS>MOLECULE
7WLW_1WR_A704
 25 27 0 0 0
SMALL
GASTEIGER

@<TRIPOS>ATOM
      1 C         132.2520  125.8840  134.5990 C.3     1  UNL1        0.1193
      2 C         131.8210  127.3400  134.2900 C.3     1  UNL1        0.0834
      3 C         131.0740  125.1540  135.2230 C.3     1  UNL1        0.0141
      4 C         129.9350  125.0870  134.2430 C.3     1  UNL1        0.0179
      5 C         129.5780  126.4490  133.6580 C.3     1  UNL1        0.0721
      6 C         130.4470  128.4910  132.5840 C.3     1  UNL1        0.0768
      7 C         129.1380  129.0980  133.0970 C.3     1  UNL1        0.0433
      8 C         133.4650  125.7820  135.5180 C.2     1  UNL1        0.3657
      9 C         129.5080  130.1990  134.0850 C.2     1  UNL1       -0.0247
     10 C         128.7070  130.6710  135.0380 C.2     1  UNL1       -0.0042
     11 C         127.2640  130.1880  135.3110 C.ar    1  UNL1       -0.0003
     12 C         129.3200  131.7830  135.8990 C.ar    1  UNL1       -0.0003
     13 C         126.8960  129.8180  136.5940 C.ar    1  UNL1       -0.0000
     14 C         128.5250  132.7470  136.4990 C.ar    1  UNL1       -0.0000
     15 C         126.2840  130.1440  134.3120 C.ar    1  UNL1       -0.0000
     16 C         130.7030  131.8220  136.0540 C.ar    1  UNL1       -0.0000
     17 C         125.5940  129.4050  136.8510 C.ar    1  UNL1       -0.0000
     18 C         129.1260  133.7370  137.2740 C.ar    1  UNL1       -0.0000
     19 C         124.9770  129.7220  134.5610 C.ar    1  UNL1       -0.0000
     20 C         131.3150  132.8080  136.8300 C.ar    1  UNL1       -0.0000
     21 C         124.6300  129.3570  135.8450 C.ar    1  UNL1       -0.0000
     22 C         130.5150  133.7640  137.4360 C.ar    1  UNL1       -0.0000
     23 N         130.7590  127.2270  133.2620 N.3     1  UNL1       -0.2719
     24 O         133.3300  125.0930  136.5740 O.co2   1  UNL1       -0.2456
     25 O         134.5700  126.3350  135.2120 O.co2   1  UNL1       -0.2456
@<TRIPOS>BOND
     1     2     1    1
     2     3     1    1
     3     4     3    1
     4     5     4    1
     5     7     6    1
     6     1     8    1
     7     9     7    1
     8    10     9    2
     9    11    10    1
    10    12    10    1
    11    13    11   ar
    12    14    12   ar
    13    15    11   ar
    14    16    12   ar
    15    17    13   ar
    16    18    14   ar
    17    19    15   ar
    18    20    16   ar
    19    21    19   ar
    20    21    17   ar
    21    22    18   ar
    22    22    20   ar
    23    23     6    1
    24    23     5    1
    25    23     2    1
    26    24     8   ar
    27    25     8   ar
