@<TRIPOS>MOLECULE
4M48_21B_A704
 20 22 0 0 0
SMALL
GASTEIGER

@<TRIPOS>ATOM
      1 C         129.3340  126.1770  135.0720 C.3     1  UNL1        0.1075
      2 N         129.9850  126.0920  133.7860 N.3     1  UNL1       -0.2162
      3 C         131.1710  126.8780  133.5230 C.3     1  UNL1        0.0934
      4 C         130.9070  128.0250  132.5470 C.3     1  UNL1        0.0448
      5 C         130.3000  129.1780  133.3070 C.2     1  UNL1       -0.0247
      6 C         130.2250  130.4660  132.9180 C.2     1  UNL1       -0.0048
      7 C         129.5640  131.3870  133.8840 C.ar    1  UNL1       -0.0043
      8 C         130.1380  131.6940  135.1120 C.ar    1  UNL1       -0.0003
      9 C         129.4590  132.5510  135.9700 C.ar    1  UNL1       -0.0000
     10 C         128.2230  133.0800  135.5960 C.ar    1  UNL1       -0.0003
     11 C         130.7370  131.0490  131.6250 C.ar    1  UNL1       -0.0043
     12 C         132.0530  130.7960  131.2490 C.ar    1  UNL1       -0.0003
     13 C         132.5840  131.3220  130.0750 C.ar    1  UNL1       -0.0000
     14 C         131.8070  132.1350  129.2630 C.ar    1  UNL1       -0.0003
     15 C         130.5000  132.4080  129.6410 C.ar    1  UNL1       -0.0043
     16 C         129.9560  131.8780  130.8090 C.ar    1  UNL1       -0.0218
     17 C         128.5170  132.2800  131.0740 C.3     1  UNL1        0.0310
     18 C         127.8010  131.5020  132.1670 C.3     1  UNL1        0.0310
     19 C         128.3450  131.9040  133.5140 C.ar    1  UNL1       -0.0218
     20 C         127.6560  132.7590  134.3650 C.ar    1  UNL1       -0.0043
@<TRIPOS>BOND
     1     2     1    1
     2     3     2    1
     3     4     3    1
     4     5     4    1
     5     6     5    2
     6     7     6    1
     7     8     7   ar
     8     9     8   ar
     9    10     9   ar
    10    11     6    1
    11    12    11   ar
    12    13    12   ar
    13    14    13   ar
    14    15    14   ar
    15    16    15   ar
    16    16    11   ar
    17    17    16    1
    18    18    17    1
    19    19    18    1
    20    19     7   ar
    21    20    19   ar
    22    20    10   ar
