@<TRIPOS>MOLECULE
4XP4_COC_A706
 22 24 0 0 0
SMALL
GASTEIGER

@<TRIPOS>ATOM
      1 C         131.7330  131.8180  134.9890 C.3     1  UNL1        0.2556
      2 O         130.5610  130.9700  134.9340 O.3     1  UNL1       -0.4443
      3 C         130.8880  129.5630  134.8120 C.2     1  UNL1        0.3215
      4 O         132.0310  129.1950  135.0450 O.2     1  UNL1       -0.2499
      5 C         129.8500  128.5860  134.3920 C.3     1  UNL1        0.1535
      6 C         129.8540  127.4270  135.3050 C.3     1  UNL1        0.0716
      7 N         130.9080  126.6590  135.1640 N.3     1  UNL1       -0.2733
      8 C         130.9920  125.7470  136.3070 C.3     1  UNL1        0.0896
      9 C         128.7010  126.4680  134.8730 C.3     1  UNL1        0.0180
     10 C         129.3840  125.4800  134.0330 C.3     1  UNL1        0.0175
     11 C         130.8590  125.9540  134.0540 C.3     1  UNL1        0.0612
     12 C         131.1020  126.7820  132.8100 C.3     1  UNL1        0.0602
     13 C         130.2120  128.1290  132.8120 C.3     1  UNL1        0.1823
     14 O         130.8880  129.0560  132.2790 O.3     1  UNL1       -0.4485
     15 C         130.1040  130.0340  131.4850 C.2     1  UNL1        0.3411
     16 O         128.9070  130.1220  131.6290 O.2     1  UNL1       -0.2449
     17 C         130.8200  130.9200  130.5010 C.ar    1  UNL1        0.0756
     18 C         130.1460  131.9400  129.8630 C.ar    1  UNL1        0.0064
     19 C         130.8220  132.7320  128.9750 C.ar    1  UNL1        0.0002
     20 C         132.1710  132.5110  128.7220 C.ar    1  UNL1        0.0000
     21 C         132.8330  131.5040  129.3610 C.ar    1  UNL1        0.0002
     22 C         132.1580  130.7050  130.2540 C.ar    1  UNL1        0.0064
@<TRIPOS>BOND
     1     2     1    1
     2     3     2    1
     3     4     3    2
     4     5     3    1
     5     6     5    1
     6     7     6    1
     7     8     7    1
     8     6     9    1
     9    10     9    1
    10    11    10    1
    11    11     7    1
    12    12    11    1
    13    13     5    1
    14    13    12    1
    15    13    14    1
    16    15    14    1
    17    16    15    2
    18    17    15    1
    19    18    17   ar
    20    19    18   ar
    21    20    19   ar
    22    21    20   ar
    23    22    21   ar
    24    22    17   ar
