@<TRIPOS>MOLECULE
4XP9_1WE_C706
 10 10 0 0 0
SMALL
GASTEIGER

@<TRIPOS>ATOM
      1 N         130.7660  125.5900  135.6100 N.3     1  UNL1       -0.1326
      2 C         130.0450  126.4730  134.6670 C.3     1  UNL1        0.0962
      3 C         128.5640  126.3280  134.9880 C.3     1  UNL1        0.0209
      4 C         130.5320  127.9140  134.8500 C.3     1  UNL1        0.0453
      5 C         130.2960  128.7930  133.6410 C.ar    1  UNL1       -0.0207
      6 C         131.3620  129.0710  132.7880 C.ar    1  UNL1       -0.0042
      7 C         129.0410  129.3440  133.3860 C.ar    1  UNL1       -0.0042
      8 C         131.1780  129.8780  131.6650 C.ar    1  UNL1       -0.0003
      9 C         128.8620  130.1540  132.2650 C.ar    1  UNL1       -0.0003
     10 C         129.9250  130.4230  131.4040 C.ar    1  UNL1       -0.0000
@<TRIPOS>BOND
     1     2     1    1
     2     2     3    1
     3     4     2    1
     4     5     4    1
     5     6     5   ar
     6     7     5   ar
     7     8     6   ar
     8     9     7   ar
     9    10     9   ar
    10    10     8   ar
