@<TRIPOS>MOLECULE
8HFL_1XR_A701
 16 16 0 0 0
SMALL
GASTEIGER

@<TRIPOS>ATOM
      1 C         128.9410  127.6610  132.9960 C.3     1  UNL1        0.0271
      2 C         129.2820  127.7110  131.5130 C.3     1  UNL1        0.1341
      3 C         130.5670  128.5050  131.2910 C.2     1  UNL1        0.1887
      4 C         130.5040  129.8040  130.5750 C.ar    1  UNL1        0.0369
      5 C         131.6070  130.2430  129.8530 C.ar    1  UNL1        0.0143
      6 C         131.5470  131.4540  129.1930 C.ar    1  UNL1        0.0578
      7 C         128.2630  125.4260  130.9210 C.3     1  UNL1        0.0600
      8 C         128.0840  124.6570  132.2290 C.3     1  UNL1        0.0175
      9 C         126.9840  126.1990  130.6060 C.3     1  UNL1        0.0175
     10 C         128.5440  124.4370  129.7930 C.3     1  UNL1        0.0175
     11 C         130.4260  132.2520  129.2510 C.ar    1  UNL1        0.0114
     12 C         129.3400  131.8220  129.9820 C.ar    1  UNL1        0.0010
     13 C         129.3750  130.6110  130.6460 C.ar    1  UNL1        0.0029
     14 N         129.4390  126.3380  130.9950 N.3     1  UNL1       -0.2144
     15 O         131.6260  128.0780  131.7220 O.2     1  UNL1       -0.2899
     16 CL        132.9230  131.9930  128.2700 Cl      1  UNL1       -0.0822
@<TRIPOS>BOND
     1     2     1    1
     2     3     2    1
     3     4     3    1
     4     5     4   ar
     5     6     5   ar
     6     7     8    1
     7     9     7    1
     8    10     7    1
     9    11     6   ar
    10    12    11   ar
    11    13     4   ar
    12    13    12   ar
    13    14     7    1
    14    14     2    1
    15    15     3    2
    16    16     6    1
