@<TRIPOS>MOLECULE
8WTX_Y60_A701
 16 16 0 0 0
SMALL
GASTEIGER

@<TRIPOS>ATOM
      1 C         127.3140  127.7620  132.3980 C.3     1  UNL1        0.0271
      2 C         128.5800  127.2420  131.6900 C.3     1  UNL1        0.1341
      3 C         129.7370  128.2190  131.9270 C.2     1  UNL1        0.1887
      4 C         129.9290  129.4770  131.0570 C.ar    1  UNL1        0.0369
      5 C         131.1600  129.7260  130.4640 C.ar    1  UNL1        0.0143
      6 C         131.3440  130.8670  129.6780 C.ar    1  UNL1        0.0578
      7 C         128.2720  125.6380  129.8770 C.3     1  UNL1        0.0600
      8 C         129.2780  124.7940  130.6820 C.3     1  UNL1        0.0175
      9 C         128.6110  125.5030  128.3640 C.3     1  UNL1        0.0175
     10 C         126.8420  125.0760  130.1200 C.3     1  UNL1        0.0175
     11 C         130.2970  131.7570  129.4880 C.ar    1  UNL1        0.0114
     12 C         129.0670  131.5160  130.0770 C.ar    1  UNL1        0.0010
     13 C         128.8840  130.3740  130.8650 C.ar    1  UNL1        0.0029
     14 N         128.3390  127.0740  130.2640 N.3     1  UNL1       -0.2144
     15 O         130.5040  128.0000  132.8080 O.2     1  UNL1       -0.2899
     16 CL        132.9300  131.1850  128.9120 Cl      1  UNL1       -0.0822
@<TRIPOS>BOND
     1     2     1    1
     2     3     2    1
     3     4     3    1
     4     5     4   ar
     5     6     5   ar
     6     7     8    1
     7     9     7    1
     8    10     7    1
     9    11     6   ar
    10    12    11   ar
    11    13     4   ar
    12    13    12   ar
    13    14     7    1
    14    14     2    1
    15    15     3    2
    16    16     6    1
