@<TRIPOS>MOLECULE
8XB2_YNT_A702
 35 36 0 0 0
SMALL
GASTEIGER

@<TRIPOS>ATOM
      1  C10      128.2830  124.8240  132.4140 C.3   702  YNT702     -0.0449
      2  C13      131.1500  130.2550  129.8010 C.ar  702  YNT702     -0.0351
      3  C15      131.0500  131.5100  129.2830 C.ar  702  YNT702      0.0414
      4  C17      129.8700  132.2070  129.3610 C.ar  702  YNT702     -0.0434
      5  C05      128.4710  126.2760  132.0550 C.3   702  YNT702      0.0374
      6  C06      129.8330  128.3650  132.4760 C.3   702  YNT702      0.0641
      7  C07      130.0600  128.3230  130.9810 C.3   702  YNT702      0.2098
      8  C08      128.8700  126.3220  130.6570 C.3   702  YNT702      0.0690
      9  C09      127.1690  127.0090  132.2380 C.3   702  YNT702     -0.0449
     10  C11      131.0140  128.8650  133.1540 C.3   702  YNT702     -0.0443
     11  C12      130.0450  129.7210  130.4010 C.ar  702  YNT702      0.0138
     12  C14      128.8610  130.4020  130.4710 C.ar  702  YNT702     -0.0534
     13  C16      128.7680  131.6580  129.9510 C.ar  702  YNT702     -0.0600
     14  N04      129.5770  126.9130  132.9640 N.3   702  YNT702     -0.3015
     15  O02      129.0050  127.6530  130.3050 O.3   702  YNT702     -0.3418
     16  O03      131.2290  127.6940  130.6250 O.3   702  YNT702     -0.3598
     17 CL01      132.4390  132.2650  128.4920 Cl    702  YNT702     -0.0835
     18 H103      129.0600  124.5310  133.1070 H     702  YNT702      0.0248
     19 H102      128.3500  124.2210  131.5180 H     702  YNT702      0.0248
     20 H101      127.3090  124.6960  132.8730 H     702  YNT702      0.0248
     21 H131      132.0860  129.7130  129.7290 H     702  YNT702      0.0636
     22 H171      129.8120  133.1970  128.9410 H     702  YNT702      0.0632
     23 H061      128.9800  128.9870  132.7140 H     702  YNT702      0.0514
     24 H081      128.0900  125.8760  130.0540 H     702  YNT702      0.0579
     25 H082      129.7980  125.7820  130.5250 H     702  YNT702      0.0579
     26 H093      126.9770  127.0880  133.3000 H     702  YNT702      0.0248
     27 H091      126.3810  126.4520  131.7510 H     702  YNT702      0.0248
     28 H092      127.2130  128.0060  131.8200 H     702  YNT702      0.0248
     29 H112      131.7810  128.1020  133.1460 H     702  YNT702      0.0246
     30 H111      130.7610  129.1060  134.1790 H     702  YNT702      0.0246
     31 H113      131.3850  129.7520  132.6570 H     702  YNT702      0.0246
     32 H141      128.0000  129.9520  130.9490 H     702  YNT702      0.0622
     33 H161      127.8400  132.2120  130.0140 H     702  YNT702      0.0618
     34  H1       130.4190  126.3830  132.8630 H     702  YNT702      0.1229
     35 H031      131.1990  127.4850  129.7070 H     702  YNT702      0.2131
@<TRIPOS>BOND
     1    17     3    1
     2    22     4    1
     3     3     4   ar
     4     3     2   ar
     5     4    13   ar
     6    35    16    1
     7    21     2    1
     8     2    11   ar
     9    13    33    1
    10    13    12   ar
    11    24     8    1
    12    15     8    1
    13    15     7    1
    14    11    12   ar
    15    11     7    1
    16    12    32    1
    17    25     8    1
    18    16     7    1
    19     8     5    1
    20     7     6    1
    21    19     1    1
    22    27     9    1
    23    28     9    1
    24     5     9    1
    25     5     1    1
    26     5    14    1
    27     9    26    1
    28     1    20    1
    29     1    18    1
    30     6    23    1
    31     6    14    1
    32     6    10    1
    33    31    10    1
    34    34    14    1
    35    29    10    1
    36    10    30    1
