@<TRIPOS>MOLECULE
8XB3_YMN_A701
 12 12 0 0 0
SMALL
GASTEIGER

@<TRIPOS>ATOM
      1  C14      130.3880  129.5050  130.7080 C.ar  701  YMN701      0.0213
      2  C16      130.5140  128.1000  131.2850 C.3   701  YMN701      0.2469
      3  C22      131.2280  131.2370  129.2850 C.ar  701  YMN701      0.0299
      4  C24      129.2220  131.5880  130.5450 C.ar  701  YMN701      0.0002
      5  C26      130.1700  132.0490  129.6510 C.ar  701  YMN701      0.0058
      6  C28      129.2380  126.8040  132.7390 C.cat 701  YMN701      0.5349
      7  C18      131.3360  129.9650  129.8140 C.ar  701  YMN701      0.0050
      8  C20      129.3310  130.3150  131.0740 C.ar  701  YMN701     -0.0008
      9  I01      132.6750  131.9300  127.9200 I     701  YMN701     -0.0425
     10  N08      129.6130  127.9490  132.4110 N.pl3 701  YMN701     -0.0815
     11  N10      128.3400  126.6300  133.8610 N.pl3 701  YMN701      0.1354
     12  N11      129.6990  125.6440  131.9990 N.pl3 701  YMN701      0.1354
@<TRIPOS>BOND
     1     9     3    1
     2     3     5   ar
     3     3     7   ar
     4     5     4   ar
     5     7     1   ar
     6     4     8   ar
     7     1     8   ar
     8     1     2    1
     9     2    10    1
    10    12     6    1
    11    10     6    2
    12     6    11    1
