@<TRIPOS>MOLECULE
9EUO_A1H8F_A701
 48 50 0 0 0
SMALL
GASTEIGER

@<TRIPOS>ATOM
      1  C14      129.9130  132.0100  144.5980 C.3   701  A1H701     -0.0476
      2  C13      130.7060  133.1190  143.9300 C.3   701  A1H701      0.0237
      3  C12      131.3140  132.6360  142.6180 C.2   701  A1H701      0.2130
      4  C17      129.1320  131.1310  131.4710 C.ar  701  A1H701     -0.0364
      5  C16      131.1960  131.3720  136.0710 C.3   701  A1H701     -0.0486
      6  C15      130.8980  130.9900  145.1390 C.3   701  A1H701     -0.0648
      7  C11      132.2280  133.1670  140.3690 C.3   701  A1H701      0.0099
      8  N3       131.6550  133.6150  141.6180 N.am  701  A1H701     -0.3154
      9  C10      131.0680  133.0170  139.3940 C.3   701  A1H701     -0.0523
     10  C8       129.1960  132.0370  137.2910 C.3   701  A1H701     -0.0860
     11  C7       128.4590  132.6970  136.0930 C.3   701  A1H701     -0.0404
     12  C5       130.3030  131.4990  134.8810 C.ar  701  A1H701      0.0035
     13  O1       131.5210  131.4860  142.4100 O.2   701  A1H701     -0.2758
     14  C4       129.3840  131.3640  132.7830 C.ar  701  A1H701      0.0470
     15  C9       131.3050  131.8940  138.3800 C.3   701  A1H701     -0.0887
     16  C1       126.9950  132.2320  131.7120 C.ar  701  A1H701      0.0417
     17  C18      127.9340  131.5570  130.9290 C.ar  701  A1H701     -0.0414
     18  C2       127.2520  132.4730  133.0610 C.ar  701  A1H701     -0.0340
     19  C3       128.4630  132.0270  133.5680 C.ar  701  A1H701      0.0043
     20  C6       129.0520  132.1130  134.9310 C.ar  701  A1H701     -0.0227
     21  N1       130.5950  130.9780  133.5600 N.ar  701  A1H701     -0.3594
     22  N2       130.6770  132.2160  137.1630 N.4   701  A1H701      0.3836
     23 CL1       125.4720  132.7650  130.9550 Cl    701  A1H701     -0.0835
     24  H17      129.2450  131.5440  143.8790 H     701  A1H701      0.0267
     25  H16      129.3350  132.4190  145.4190 H     701  A1H701      0.0267
     26  H14      130.0520  133.9600  143.7250 H     701  A1H701      0.0358
     27  H15      131.5020  133.4310  144.5980 H     701  A1H701      0.0358
     28  H23      129.8670  130.6140  130.8700 H     701  A1H701      0.0639
     29  H21      132.2040  131.6910  135.8210 H     701  A1H701      0.0121
     30  H22      131.2210  130.3370  136.4000 H     701  A1H701      0.0121
     31  H20      131.7840  130.9460  144.5270 H     701  A1H701      0.0230
     32  H19      130.4360  130.0170  145.1570 H     701  A1H701      0.0230
     33  H18      131.1980  131.2780  146.1340 H     701  A1H701      0.0230
     34  H13      132.9360  133.9090  140.0120 H     701  A1H701      0.0461
     35  H12      132.7340  132.2180  140.5090 H     701  A1H701      0.0461
     36  H2       131.4800  134.5840  141.7850 H     701  A1H701      0.1487
     37  H11      130.9190  133.9610  138.8790 H     701  A1H701      0.0262
     38  H10      130.1760  132.7870  139.9670 H     701  A1H701      0.0262
     39  H6       128.8240  132.4460  138.2220 H     701  A1H701      0.0062
     40  H7       128.9830  130.9750  137.2420 H     701  A1H701      0.0062
     41  H4       127.3940  132.4860  136.0990 H     701  A1H701      0.0296
     42  H5       128.6490  133.7580  136.0870 H     701  A1H701      0.0296
     43  H9       132.3680  131.7440  138.2180 H     701  A1H701      0.0060
     44  H8       130.8630  130.9810  138.7600 H     701  A1H701      0.0060
     45  H24      127.7350  131.3790  129.8830 H     701  A1H701      0.0633
     46  H3       126.5280  132.9910  133.6820 H     701  A1H701      0.0639
     47  H1       131.4150  130.5040  133.2390 H     701  A1H701      0.1655
     48  HN       130.8610  133.1760  136.9390 H     701  A1H701     -0.0813
@<TRIPOS>BOND
     1    45    17    1
     2    28     4    1
     3    17     4   ar
     4    17    16   ar
     5    23    16    1
     6     4    14   ar
     7    16    18   ar
     8    14    21   ar
     9    14    19   ar
    10    18    19   ar
    11    18    46    1
    12    47    21    1
    13    21    12   ar
    14    19    20   ar
    15    12    20   ar
    16    12     5    1
    17    20    11    1
    18    29     5    1
    19     5    30    1
    20     5    22    1
    21    42    11    1
    22    11    41    1
    23    11    10    1
    24    48    22    1
    25    22    10    1
    26    22    15    1
    27    40    10    1
    28    10    39    1
    29    43    15    1
    30    15    44    1
    31    15     9    1
    32    37     9    1
    33     9    38    1
    34     9     7    1
    35    34     7    1
    36     7    35    1
    37     7     8    1
    38     8    36    1
    39     8     3   am
    40    13     3    2
    41     3     2    1
    42    26     2    1
    43    24     1    1
    44     2     1    1
    45     2    27    1
    46    31     6    1
    47     1     6    1
    48     1    25    1
    49     6    32    1
    50     6    33    1
