@<TRIPOS>MOLECULE
9JF3_A1EBO_A701
 19 21 0 0 0
SMALL
GASTEIGER

@<TRIPOS>ATOM
      1 C         127.7430  124.0890  130.2490 C.ar    1  UNL1        0.0699
      2 C         131.1640  129.8170  129.9210 C.ar    1  UNL1        0.0031
      3 C         130.8220  132.1600  129.5990 C.ar    1  UNL1        0.0000
      4 C         129.0850  130.8210  130.5440 C.ar    1  UNL1        0.0031
      5 C         129.3850  128.3480  130.9050 C.2     1  UNL1        0.2511
      6 C         129.9640  127.0790  130.2940 C.3     1  UNL1        0.3922
      7 C         129.2230  125.5750  132.0070 C.ar    1  UNL1        0.2905
      8 C         128.5180  124.4770  132.4760 C.ar    1  UNL1        0.0758
      9 C         127.7480  123.7090  131.5580 C.ar    1  UNL1        0.0120
     10 C         127.0040  122.5730  131.9790 C.ar    1  UNL1        0.0004
     11 C         126.2650  121.8540  131.0510 C.ar    1  UNL1        0.0000
     12 C         126.2560  122.2460  129.7110 C.ar    1  UNL1        0.0002
     13 C         126.9850  123.3520  129.2980 C.ar    1  UNL1        0.0061
     14 C         128.5010  125.2270  129.8590 C.ar    1  UNL1        0.2903
     15 C         129.8930  129.7060  130.4430 C.ar    1  UNL1        0.0417
     16 C         131.6290  131.0440  129.5010 C.ar    1  UNL1        0.0001
     17 C         129.5500  132.0470  130.1220 C.ar    1  UNL1        0.0001
     18 N         129.2030  125.9270  130.7320 N.ar    1  UNL1       -0.1526
     19 O         128.5420  128.2770  131.7310 O.2     1  UNL1       -0.2840
@<TRIPOS>UNITY_ATOM_ATTR
18 1
charge 1
@<TRIPOS>BOND
     1     6     5    1
     2     8     7   ar
     3     9     1   ar
     4     9     8   ar
     5    10     9   ar
     6    11    10   ar
     7    12    11   ar
     8    13    12   ar
     9    13     1   ar
    10    14     1   ar
    11    15     5    1
    12    15     4   ar
    13    15     2   ar
    14    16     2   ar
    15    16     3   ar
    16    17     4   ar
    17    17     3   ar
    18    18    14   ar
    19    18     6    1
    20    18     7   ar
    21    19     5    2
