@<TRIPOS>MOLECULE
8W1V_A1AE2_A1201
 42 44 0 0 0
SMALL
GASTEIGER

@<TRIPOS>ATOM
      1 C         -27.2700   12.2410    5.7980 C.ar    1  UNL1       -0.0001
      2 C         -34.3840    6.0960    8.7720 C.3     1  UNL1        0.0252
      3 C         -27.1560   11.0080    6.2370 C.ar    1  UNL1       -0.0013
      4 C         -28.2900   10.3720    7.0450 C.ar    1  UNL1        0.0118
      5 C         -32.7620   10.3220    8.5350 C.3     1  UNL1        0.2126
      6 C         -28.1240    8.9380    7.5430 C.3     1  UNL1        0.0294
      7 C         -26.7400    8.7780    8.1670 C.3     1  UNL1        0.0048
      8 C         -26.2330    7.3390    8.1120 C.3     1  UNL1        0.0004
      9 C         -31.7080   10.6190    7.4690 C.3     1  UNL1        0.2395
     10 C         -32.7210    8.8350    8.8530 C.3     1  UNL1        0.1254
     11 C         -33.2290    6.7000    7.9910 C.3     1  UNL1        0.0892
     12 N         -33.4870    8.1220    7.8530 N.3     1  UNL1       -0.2152
     13 N         -35.6120    3.7260    6.8140 N.ar    1  UNL1       -0.1331
     14 C         -28.5370   13.0360    6.0960 C.ar    1  UNL1        0.0031
     15 N         -36.2170    2.5080    7.1210 N.ar    1  UNL1       -0.0641
     16 C         -29.3910   11.0600    7.3040 C.ar    1  UNL1        0.1346
     17 C         -35.5910    6.0810    7.8450 C.3     1  UNL1        0.0508
     18 C         -36.0150    4.6280    7.7720 C.ar    1  UNL1        0.1009
     19 C         -36.8590    3.9890    8.6650 C.ar    1  UNL1        0.1131
     20 C         -37.7600    1.5980    8.8750 C.3     1  UNL1        0.1292
     21 C         -37.6570    1.5350   10.4050 C.3     1  UNL1        0.0268
     22 C         -29.5150   12.4910    6.7900 C.ar    1  UNL1        0.0366
     23 C         -36.2650    1.9070   10.9160 C.3     1  UNL1        0.0067
     24 C         -35.8720    1.1060   12.1510 C.3     1  UNL1        0.0264
     25 C         -34.4420    0.6310   11.9160 C.ar    1  UNL1       -0.0220
     26 C         -33.5000    0.6810   12.9300 C.ar    1  UNL1       -0.0012
     27 C         -32.2020    0.2410   12.6890 C.ar    1  UNL1        0.0366
     28 C         -31.8590   -0.2410   11.4270 C.ar    1  UNL1        0.1387
     29 C         -32.8090   -0.2790   10.4180 C.ar    1  UNL1        0.0366
     30 C         -34.0910    0.1590   10.6700 C.ar    1  UNL1       -0.0012
     31 C         -29.7660    0.2650   10.5230 C.3     1  UNL1        0.2395
     32 C         -28.3800    0.2790   11.1560 C.3     1  UNL1        0.2126
     33 C         -28.2510    1.5120   12.0480 C.3     1  UNL1        0.1253
     34 C         -27.5970    3.6460   11.2570 C.3     1  UNL1        0.0730
     35 C         -26.5890    4.3410   10.3430 C.3     1  UNL1        0.0188
     36 C         -27.7220    4.4300   12.5580 C.3     1  UNL1        0.0188
     37 N         -36.9730    2.6600    8.2560 N.ar    1  UNL1       -0.2306
     38 N         -27.1340    2.3080   11.5740 N.3     1  UNL1       -0.2167
     39 O         -30.4390   10.4930    8.0450 O.3     1  UNL1       -0.4730
     40 O         -34.0470   10.6420    8.0790 O.3     1  UNL1       -0.2176
     41 O         -30.5570   -0.6860   11.1690 O.3     1  UNL1       -0.4727
     42 O         -27.4130    0.3220   10.1440 O.3     1  UNL1       -0.2176
@<TRIPOS>BOND
     1     3     1   ar
     2     4     3   ar
     3     6     4    1
     4     7     6    1
     5     8     7    1
     6     9     5    1
     7    10     5    1
     8    11     2    1
     9    12    11    1
    10    12    10    1
    11    14     1   ar
    12    15    13   ar
    13    16     4   ar
    14    17     2    1
    15    18    13   ar
    16    18    17    1
    17    19    18   ar
    18    21    20    1
    19    22    16   ar
    20    22    14   ar
    21    23    21    1
    22    24    23    1
    23    25    24    1
    24    26    25   ar
    25    27    26   ar
    26    28    27   ar
    27    29    28   ar
    28    30    29   ar
    29    30    25   ar
    30    32    31    1
    31    33    32    1
    32    34    35    1
    33    36    34    1
    34    37    20    1
    35    37    19   ar
    36    37    15   ar
    37    38    34    1
    38    38    33    1
    39    39     9    1
    40    39    16    1
    41     5    40    1
    42    41    31    1
    43    41    28    1
    44    32    42    1
