@<TRIPOS>MOLECULE
3K23_JZN_B2
 47 51 0 0 0
SMALL
GASTEIGER

@<TRIPOS>ATOM
      1 C          26.7290   10.2580   14.5070 C.3     1  UNL1        0.2525
      2 F          31.3080    7.5580   17.3220 F       1  UNL1       -0.2042
      3 N          29.9850    6.7380   11.5140 N.pl3   1  UNL1       -0.2346
      4 O          26.5380    8.9520   15.0440 O.3     1  UNL1       -0.4717
      5 C          27.7400    8.5610   15.6050 C.ar    1  UNL1        0.1348
      6 F          29.3960    3.0420   13.0160 F       1  UNL1       -0.1674
      7 N          32.4730    8.3690    8.0210 N.ar    1  UNL1       -0.2296
      8 O          27.9830    5.0550   12.0950 O.3     1  UNL1       -0.2150
      9 C          28.5340    9.5500   16.1400 C.ar    1  UNL1        0.0389
     10 F          30.5070    4.3410   11.6980 F       1  UNL1       -0.1674
     11 N          31.4120    7.6810    7.5560 N.ar    1  UNL1       -0.1635
     12 O          36.7150    6.3440    7.3390 O.2     1  UNL1       -0.2699
     13 C          29.7310    9.2160   16.7160 C.ar    1  UNL1        0.0327
     14 F          30.9830    4.2890   13.8570 F       1  UNL1       -0.1674
     15 N          37.6860    6.7900    5.3550 N.am    1  UNL1       -0.2694
     16 O          38.0120    8.7710    2.7550 O.2     1  UNL1       -0.2699
     17 C          30.1300    7.9010   16.7570 C.ar    1  UNL1        0.1400
     18 N          39.7220    7.4320    3.5020 N.am    1  UNL1       -0.0863
     19 C          29.3300    6.9220   16.2260 C.ar    1  UNL1        0.0283
     20 C          28.1210    7.2280   15.6380 C.ar    1  UNL1        0.0135
     21 C          27.3090    6.0810   15.0760 C.3     1  UNL1        0.0246
     22 C          26.5480    5.4960   16.2370 C.3     1  UNL1        0.0046
     23 C          26.2740    6.4520   14.0380 C.3     1  UNL1        0.0046
     24 C          28.2130    5.0040   14.4780 C.3     1  UNL1        0.0450
     25 C          28.9220    5.2860   13.1380 C.3     1  UNL1        0.2329
     26 C          29.5460    6.6640   12.9070 C.3     1  UNL1        0.1510
     27 C          31.1280    7.4980   11.1670 C.ar    1  UNL1        0.0681
     28 C          32.0190    8.0970   12.0350 C.ar    1  UNL1        0.0120
     29 C          33.1070    8.8160   11.5900 C.ar    1  UNL1       -0.0191
     30 C          34.0170    9.4270   12.5910 C.3     1  UNL1        0.0311
     31 C          33.3900    8.9940   10.2520 C.ar    1  UNL1        0.0150
     32 C          32.5090    8.3980    9.3900 C.ar    1  UNL1        0.0852
     33 C          30.7780    7.2450    8.6420 C.ar    1  UNL1        0.1233
     34 C          31.4160    7.6720    9.8250 C.ar    1  UNL1        0.0534
     35 C          33.5230    8.6040    7.1190 C.ar    1  UNL1        0.0829
     36 C          33.4720    9.6480    6.2270 C.ar    1  UNL1        0.0192
     37 C          34.5100    9.8470    5.3390 C.ar    1  UNL1        0.0017
     38 C          35.6050    9.0130    5.3210 C.ar    1  UNL1        0.0046
     39 C          35.6360    7.9730    6.2150 C.ar    1  UNL1        0.0551
     40 C          34.6030    7.7630    7.1120 C.ar    1  UNL1        0.0237
     41 C          36.7280    7.0030    6.3130 C.2     1  UNL1        0.2494
     42 C          38.5430    5.6610    5.6750 C.3     1  UNL1        0.0942
     43 C          38.9200    4.9620    4.3990 C.3     1  UNL1        0.0237
     44 C          37.9440    5.5010    3.3910 C.3     1  UNL1        0.0311
     45 C          37.4600    6.8100    3.9440 C.3     1  UNL1        0.1554
     46 C          38.4100    7.7870    3.3500 C.2     1  UNL1        0.2788
     47 C          29.9200    4.1650   13.0450 C.3     1  UNL1        0.4243
@<TRIPOS>BOND
     1     4     1    1
     2     5     4    1
     3     9     5   ar
     4    11     7   ar
     5    13     9   ar
     6    17    13   ar
     7    17     2    1
     8    19    17   ar
     9    20    19   ar
    10    20     5   ar
    11    21    20    1
    12    21    22    1
    13    23    21    1
    14    24    21    1
    15    25    24    1
    16    25     8    1
    17    26    25    1
    18    26     3    1
    19    27     3    1
    20    28    27   ar
    21    29    28   ar
    22    30    29    1
    23    31    29   ar
    24    32     7   ar
    25    32    31   ar
    26    33    11   ar
    27    34    33   ar
    28    34    32   ar
    29    34    27   ar
    30    35     7    1
    31    36    35   ar
    32    37    36   ar
    33    38    37   ar
    34    39    38   ar
    35    40    39   ar
    36    40    35   ar
    37    41    15   am
    38    41    39    1
    39    41    12    2
    40    42    15    1
    41    43    42    1
    42    44    43    1
    43    45    44    1
    44    45    15    1
    45    45    46    1
    46    46    16    2
    47    46    18   am
    48    47    25    1
    49    47    14    1
    50    47    10    1
    51    47     6    1
