@<TRIPOS>MOLECULE
4LSJ_LSJ_A801
 31 34 0 0 0
SMALL
GASTEIGER

@<TRIPOS>ATOM
      1 C          35.2270    8.6620   11.9200 C.3     1  UNL1        0.2321
      2 O          35.4710    9.0070   10.5800 O.3     1  UNL1       -0.4706
      3 C          34.7660    8.3190    9.6090 C.ar    1  UNL1        0.1389
      4 C          33.7530    7.4200    9.8070 C.ar    1  UNL1        0.0338
      5 C          33.1590    6.8420    8.7300 C.ar    1  UNL1        0.0030
      6 C          33.5460    7.0960    7.4480 C.ar    1  UNL1        0.0002
      7 C          34.5580    7.9790    7.2430 C.ar    1  UNL1        0.0031
      8 C          35.1470    8.5700    8.3230 C.ar    1  UNL1        0.0369
      9 C          33.2340    7.1170   11.0950 C.2     1  UNL1        0.0017
     10 C          33.1080    5.8680   11.5660 C.2     1  UNL1       -0.0219
     11 C          32.5120    5.5810   12.8490 C.ar    1  UNL1       -0.0026
     12 C          32.8560    6.1100   14.0570 C.ar    1  UNL1       -0.0002
     13 C          32.1970    5.7580   15.2070 C.ar    1  UNL1        0.0014
     14 C          31.1750    4.8550   15.2060 C.ar    1  UNL1        0.0180
     15 C          30.8310    4.3280   13.9920 C.ar    1  UNL1        0.0906
     16 C          31.4870    4.6910   12.8590 C.ar    1  UNL1        0.0177
     17 N          29.8290    3.3700   13.7780 N.pl3   1  UNL1       -0.1006
     18 S          28.3360    3.3400   14.5080 S.O2    1  UNL1        0.0750
     19 O          27.6180    2.2440   14.0450 O.2     1  UNL1       -0.1528
     20 O          28.4340    3.5230   15.8920 O.2     1  UNL1       -0.1528
     21 C          27.6600    4.7530   13.7870 C.3     1  UNL1        0.2016
     22 C          33.4650    4.6640   10.8010 C.3     1  UNL1        0.0264
     23 C          34.1910    3.6380   11.6130 C.3     1  UNL1        0.0050
     24 C          32.8170    8.2260   11.9150 C.ar    1  UNL1        0.0333
     25 C          33.8440    9.0210   12.3440 C.ar    1  UNL1        0.0241
     26 C          33.5490   10.0900   13.1430 C.ar    1  UNL1       -0.0005
     27 C          32.2590   10.3680   13.5020 C.ar    1  UNL1        0.0029
     28 C          31.2500    9.5750   13.0590 C.ar    1  UNL1        0.0369
     29 C          31.5190    8.4980   12.2630 C.ar    1  UNL1        0.1384
     30 O          30.5150    7.7110   11.7940 O.3     1  UNL1       -0.4714
     31 C          29.4060    7.8380   12.6010 C.3     1  UNL1        0.2525
@<TRIPOS>BOND
     1     2     1    1
     2     3     2    1
     3     4     3   ar
     4     5     4   ar
     5     6     5   ar
     6     7     6   ar
     7     8     7   ar
     8     8     3   ar
     9     9     4    1
    10    10     9    2
    11    11    10    1
    12    12    11   ar
    13    13    12   ar
    14    14    13   ar
    15    15    14   ar
    16    16    15   ar
    17    16    11   ar
    18    17    15    1
    19    18    17    1
    20    19    18    2
    21    20    18    2
    22    18    21    1
    23    22    10    1
    24    23    22    1
    25    24     9    1
    26    25    24   ar
    27    25     1    1
    28    26    25   ar
    29    27    26   ar
    30    28    27   ar
    31    29    28   ar
    32    29    24   ar
    33    30    29    1
    34    31    30    1
