@<TRIPOS>MOLECULE
4P6X_HCY_C900
 26 29 0 0 0
SMALL
GASTEIGER

@<TRIPOS>ATOM
      1 C          30.9440    6.9040    9.5210 C.3     1  UNL1        0.0119
      2 C          31.5740    7.3390    8.2030 C.3     1  UNL1        0.0694
      3 C          32.5710    8.4610    8.4090 C.2     1  UNL1        0.1725
      4 C          33.1870    8.6950    9.7220 C.2     1  UNL1        0.0289
      5 C          32.8760    7.9570   10.7930 C.2     1  UNL1       -0.0419
      6 C          33.6530    8.2110   12.0530 C.3     1  UNL1        0.0221
      7 C          32.7380    8.3450   13.2480 C.3     1  UNL1        0.0044
      8 C          31.6620    7.2650   13.2860 C.3     1  UNL1        0.0032
      9 C          30.8970    7.1070   11.9660 C.3     1  UNL1        0.0339
     10 C          31.8270    6.8510   10.7530 C.3     1  UNL1        0.0181
     11 C          28.7880    6.4910   13.2840 C.3     1  UNL1        0.0357
     12 C          29.6570    6.1700   12.0570 C.3     1  UNL1        0.1523
     13 C          29.5570    6.6710   14.5930 C.3     1  UNL1        0.0348
     14 C          30.6780    7.6740   14.3610 C.3     1  UNL1        0.0030
     15 C          31.2370    7.8920   15.7390 C.3     1  UNL1        0.0031
     16 C          30.0460    7.7540   16.6780 C.3     1  UNL1        0.0377
     17 C          28.8830    7.3310   15.8210 C.3     1  UNL1        0.1796
     18 C          30.1110    5.3160   15.0330 C.3     1  UNL1        0.0030
     19 C          32.5960    5.5290   10.8470 C.3     1  UNL1        0.0041
     20 C          27.9170    6.4800   16.6260 C.2     1  UNL1        0.2109
     21 C          26.6110    6.1140   15.9910 C.3     1  UNL1        0.2484
     22 O          32.8790    9.1900    7.4810 O.2     1  UNL1       -0.2914
     23 O          29.9570    4.7650   12.0490 O.3     1  UNL1       -0.2231
     24 O          28.1960    8.5410   15.4590 O.3     1  UNL1       -0.2181
     25 O          28.1920    6.0800   17.7540 O.2     1  UNL1       -0.2907
     26 O          25.8600    5.2550   16.8410 O.3     1  UNL1       -0.2118
@<TRIPOS>BOND
     1     2     1    1
     2     3     2    1
     3     4     3    1
     4     5     4    2
     5     6     5    1
     6     7     6    1
     7     8     7    1
     8     9     8    1
     9    10     1    1
    10    10     9    1
    11    10     5    1
    12    12    11    1
    13     9    12    1
    14    13    11    1
    15    14    13    1
    16    14     8    1
    17    14    15    1
    18    16    15    1
    19    17    13    1
    20    17    16    1
    21    13    18    1
    22    10    19    1
    23    20    17    1
    24    21    20    1
    25    22     3    2
    26    12    23    1
    27    17    24    1
    28    25    20    2
    29    26    21    1
