@<TRIPOS>MOLECULE
6EL6_B9Q_A802
 34 38 0 0 0
SMALL
GASTEIGER

@<TRIPOS>ATOM
      1 C          30.6070    3.7020   13.5520 C.3     1  UNL1        0.0276
      2 C          30.2130    5.0830   14.0050 C.3     1  UNL1        0.1395
      3 C          30.4400    8.3600   13.8780 C.ar    1  UNL1        0.0056
      4 C          29.9060    9.5710   14.2560 C.ar    1  UNL1        0.0575
      5 C          28.5650    9.7960   14.0190 C.ar    1  UNL1        0.2250
      6 C          28.2920    7.7290   13.0920 C.ar    1  UNL1        0.1013
      7 C          26.7100   11.0690   14.5650 C.3     1  UNL1        0.2542
      8 C          31.6830    6.7370   11.1160 C.ar    1  UNL1        0.1391
      9 C          32.7890    7.5480   10.9400 C.ar    1  UNL1        0.0385
     10 C          31.1320    7.0400    8.8530 C.ar    1  UNL1        0.0416
     11 C          30.8280    6.4480   10.0720 C.ar    1  UNL1        0.0400
     12 C          30.5260    7.0240    7.5730 C.ar    1  UNL1        0.1221
     13 N          32.2410    8.2330    7.3790 N.ar    1  UNL1       -0.2296
     14 C          33.2840    8.8510    6.6610 C.ar    1  UNL1        0.0829
     15 C          35.2240   10.0870    5.1860 C.ar    1  UNL1        0.1402
     16 C          28.8460    5.7650   15.9110 C.2     1  UNL1        0.2410
     17 C          27.4510    5.7940   16.3840 C.3     1  UNL1        0.0782
     18 C          27.1440    6.0550   17.8270 C.3     1  UNL1        0.0096
     19 C          30.1680    6.0740   12.8520 C.3     1  UNL1        0.2093
     20 C          29.6270    7.4130   13.2810 C.ar    1  UNL1        0.0383
     21 N          27.7360    8.8980   13.4430 N.ar    1  UNL1       -0.2104
     22 O          28.1240   11.0620   14.4240 O.3     1  UNL1       -0.4561
     23 O          31.5250    6.2030   12.3990 O.3     1  UNL1       -0.4729
     24 C          33.1130    8.1370    9.7370 C.ar    1  UNL1        0.0223
     25 C          32.2440    7.8500    8.7020 C.ar    1  UNL1        0.0845
     26 N          31.1960    7.7520    6.6820 N.ar    1  UNL1       -0.1635
     27 C          34.6030    8.4690    6.8290 C.ar    1  UNL1        0.0215
     28 C          35.5780    9.1040    6.0890 C.ar    1  UNL1        0.0312
     29 C          33.9150   10.4680    5.0130 C.ar    1  UNL1        0.0312
     30 C          32.9430    9.8400    5.7620 C.ar    1  UNL1        0.0215
     31 F          36.1730   10.6980    4.4660 F       1  UNL1       -0.2042
     32 N          28.9870    5.0060   14.7720 N.am    1  UNL1       -0.2031
     33 O          29.7380    6.3990   16.4700 O.2     1  UNL1       -0.2734
     34 C          26.8360    7.1010   16.8020 C.3     1  UNL1        0.0096
@<TRIPOS>BOND
     1     2     1    1
     2     4     3   ar
     3     5     4   ar
     4     9     8   ar
     5    11    10   ar
     6    11     8   ar
     7    12    10   ar
     8    14    13    1
     9    17    16    1
    10    18    17    1
    11    19     2    1
    12    20    19    1
    13    20     6   ar
    14    20     3   ar
    15    21     6   ar
    16    21     5   ar
    17    22     7    1
    18    22     5    1
    19    19    23    1
    20    23     8    1
    21    24     9   ar
    22    25    13   ar
    23    25    10   ar
    24    25    24   ar
    25    26    13   ar
    26    26    12   ar
    27    27    14   ar
    28    28    15   ar
    29    28    27   ar
    30    29    15   ar
    31    30    29   ar
    32    30    14   ar
    33    31    15    1
    34    32     2    1
    35    32    16   am
    36    33    16    2
    37    34    18    1
    38    34    17    1
