5IKV_FLF_B601
     RDKit          3D

 29 30  0  0  0  0  0  0  0  0999 V2000
   26.5350    4.6340   34.2050 C   0  0  0  0  0  0  0  0  0  0  0  0
   27.5800    4.4490   32.1280 O   0  0  0  0  0  0  0  0  0  0  0  0
   26.8580    5.1290   35.4340 C   0  0  0  0  0  0  0  0  0  0  0  0
   25.9380    5.1210   36.4200 C   0  0  0  0  0  0  0  0  0  0  0  0
   28.8810    4.9920   33.6560 O   0  0  0  0  0  0  0  0  0  0  0  0
   24.6970    4.6430   36.1990 C   0  0  0  0  0  0  0  0  0  0  0  0
   24.3710    4.1360   34.9920 C   0  0  0  0  0  0  0  0  0  0  0  0
   25.2930    4.1290   34.0070 C   0  0  0  0  0  0  0  0  0  0  0  0
   27.7350    4.7250   33.3010 C   0  0  0  0  0  0  0  0  0  0  0  0
   25.0260    3.6480   32.7390 N   0  0  0  0  0  0  0  0  0  0  0  0
   23.9090    2.9050   32.3440 C   0  0  0  0  0  0  0  0  0  0  0  0
   23.4710    3.0400   31.0640 C   0  0  0  0  0  0  0  0  0  0  0  0
   22.4130    2.3280   30.5870 C   0  0  0  0  0  0  0  0  0  0  0  0
   21.7900    1.4690   31.4330 C   0  0  0  0  0  0  0  0  0  0  0  0
   22.2230    1.3260   32.7070 C   0  0  0  0  0  0  0  0  0  0  0  0
   23.2820    2.0370   33.1630 C   0  0  0  0  0  0  0  0  0  0  0  0
   21.9430    2.4750   29.1820 C   0  0  1  0  0  0  0  0  0  0  0  0
   21.3090    1.4330   28.8200 F   0  0  0  0  0  0  0  0  0  0  0  0
   21.0980    3.4100   29.1160 F   0  0  0  0  0  0  0  0  0  0  0  0
   22.8430    2.7170   28.2870 F   0  0  0  0  0  0  0  0  0  0  0  0
   27.7450    5.4830   35.6130 H   0  0  0  0  0  0  0  0  0  0  0  0
   26.1650    5.4820   37.2900 H   0  0  0  0  0  0  0  0  0  0  0  0
   24.0480    4.6480   36.9160 H   0  0  0  0  0  0  0  0  0  0  0  0
   23.4810    3.7920   34.8390 H   0  0  0  0  0  0  0  0  0  0  0  0
   25.6220    3.8560   32.0880 H   0  0  0  0  0  0  0  0  0  0  0  0
   23.9340    3.6500   30.4690 H   0  0  0  0  0  0  0  0  0  0  0  0
   21.0310    0.9540   31.1220 H   0  0  0  0  0  0  0  0  0  0  0  0
   21.7690    0.7090   33.3040 H   0  0  0  0  0  0  0  0  0  0  0  0
   23.5820    1.9280   34.0800 H   0  0  0  0  0  0  0  0  0  0  0  0
  3  1  2  0
  4  3  1  0
  6  4  2  0
  7  6  1  0
  8  7  2  0
  8  1  1  0
  9  1  1  0
  9  2  2  0
  9  5  1  0
 10  8  1  0
 11 10  1  0
 12 11  2  0
 13 12  1  0
 14 13  2  0
 15 14  1  0
 16 11  1  0
 16 15  2  0
 17 13  1  0
 17 18  1  6
 19 17  1  0
 20 17  1  0
 21  3  1  0
 22  4  1  0
 23  6  1  0
 24  7  1  0
 25 10  1  0
 26 12  1  0
 27 14  1  0
 28 15  1  0
 29 16  1  0
M  CHG  1   5  -1
M  END
>  <_TriposChargeType>  (1) 
GASTEIGER

$$$$
