@<TRIPOS>MOLECULE
8F0S_X80_A1605
 38 41 0 0 0
SMALL
GASTEIGER

@<TRIPOS>ATOM
      1 C          89.8800  135.4460  139.2220 C.ar    1  UNL1        0.0176
      2 C          89.5160  136.1020  136.5600 C.ar    1  UNL1        0.1602
      3 C          88.5090  136.3750  137.4910 C.ar    1  UNL1        0.0471
      4 C          90.7170  135.5600  136.9750 C.ar    1  UNL1        0.1545
      5 C          90.8920  135.1890  138.3050 C.ar    1  UNL1        0.0239
      6 C          83.0290  137.9920  139.3220 C.3     1  UNL1        0.0897
      7 C          83.7020  135.8790  138.2540 C.3     1  UNL1        0.0897
      8 C          85.4060  137.1460  139.6600 C.3     1  UNL1        0.0774
      9 C          85.5940  137.9870  140.9410 C.3     1  UNL1        0.0177
     10 C          85.2730  137.2080  142.2100 C.3     1  UNL1        0.0015
     11 C          86.0840  135.9210  142.3120 C.3     1  UNL1        0.0019
     12 C          86.0080  135.0770  141.0400 C.3     1  UNL1        0.0229
     13 C          86.3160  135.8840  139.7650 C.3     1  UNL1        0.1070
     14 C          88.6740  136.0380  138.8320 C.ar    1  UNL1        0.0676
     15 C          90.7610  133.1980  134.3820 C.2     1  UNL1        0.2879
     16 C          90.5990  131.7260  134.3430 C.ar    1  UNL1        0.0851
     17 C          90.5670  131.0270  135.5510 C.ar    1  UNL1        0.0213
     18 C          90.3920  129.6520  135.5610 C.ar    1  UNL1        0.0918
     19 C          90.2300  128.9450  134.3700 C.ar    1  UNL1        0.1512
     20 C          90.7760  126.6930  133.6930 C.3     1  UNL1        0.2053
     21 C          89.8180  125.7900  132.9290 C.3     1  UNL1        0.0438
     22 C          90.5510  124.7790  132.0520 C.3     1  UNL1        0.0037
     23 C          89.6230  123.5720  131.9330 C.3     1  UNL1        0.0001
     24 C          88.4580  123.8360  132.8800 C.3     1  UNL1        0.0001
     25 C          88.9610  124.9090  133.8310 C.3     1  UNL1        0.0037
     26 C          90.2140  129.6430  133.1570 C.ar    1  UNL1        0.0675
     27 C          90.4020  131.0280  133.1510 C.ar    1  UNL1        0.1476
     28 F          89.3130  136.4740  135.2910 F       1  UNL1       -0.2027
     29 F          90.4030  131.6620  131.9700 F       1  UNL1       -0.2039
     30 N          83.9190  136.7840  139.4380 N.3     1  UNL1       -0.2700
     31 N          87.7360  136.2550  139.8110 N.pl3   1  UNL1       -0.2379
     32 N          91.6040  133.6370  135.4030 N.am    1  UNL1       -0.0547
     33 O          93.2380  135.0490  136.6510 O.2     1  UNL1       -0.1481
     34 O          91.9790  136.0770  134.7460 O.2     1  UNL1       -0.1481
     35 O          90.2200  133.9310  133.5720 O.2     1  UNL1       -0.2666
     36 O          90.0210  127.5980  134.4960 O.3     1  UNL1       -0.4745
     37 S          92.0230  135.1720  135.8740 S.O2    1  UNL1        0.0978
     38 CL         90.3930  128.8430  137.0850 Cl      1  UNL1       -0.0791
@<TRIPOS>BOND
     1     3     2   ar
     2     4     2   ar
     3     5     4   ar
     4     5     1   ar
     5     9     8    1
     6    10     9    1
     7    11    10    1
     8    12    11    1
     9    13    12    1
    10    13     8    1
    11    14     1   ar
    12    14     3   ar
    13    16    15    1
    14    17    16   ar
    15    18    17   ar
    16    19    18   ar
    17    21    20    1
    18    22    21    1
    19    23    22    1
    20    24    23    1
    21    25    24    1
    22    25    21    1
    23    26    19   ar
    24    27    26   ar
    25    27    16   ar
    26    28     2    1
    27    29    27    1
    28    30     7    1
    29     8    30    1
    30    30     6    1
    31    13    31    1
    32    31    14    1
    33    32    15   am
    34    35    15    2
    35    36    20    1
    36    36    19    1
    37    37    34    2
    38    37    32    1
    39    37     4    1
    40    37    33    2
    41    38    18    1
