@<TRIPOS>MOLECULE
10KT_A1C5S_A1202
 30 34 0 0 0
SMALL
GASTEIGER

@<TRIPOS>ATOM
      1 N          -1.4730   97.5680   51.9000 N.pl3   1  UNL1       -0.0860
      2 C          -0.5690   96.5880   51.9700 C.ar    1  UNL1        0.2592
      3 N          -0.8740   95.3820   51.4880 N.ar    1  UNL1       -0.2079
      4 C           0.0770   94.3780   51.5360 C.ar    1  UNL1        0.1210
      5 C          -0.2550   93.1030   51.0530 C.ar    1  UNL1        0.1564
      6 O          -1.5610   92.9300   50.6930 O.3     1  UNL1       -0.4699
      7 C          -1.9580   91.6310   50.2630 C.3     1  UNL1        0.2525
      8 C           0.6930   92.0900   51.0340 C.ar    1  UNL1        0.0385
      9 C           1.9700   92.3270   51.5170 C.ar    1  UNL1        0.0033
     10 C           2.3090   93.5650   52.0350 C.ar    1  UNL1        0.0048
     11 C           1.3640   94.5890   52.0540 C.ar    1  UNL1        0.0567
     12 N           0.6730   96.8500   52.5420 N.ar    1  UNL1       -0.1786
     13 C           1.6480   95.8950   52.6020 C.ar    1  UNL1        0.1696
     14 N           2.6930   96.3750   53.2530 N.ar    1  UNL1       -0.2100
     15 N           1.0910   97.9950   53.1670 N.ar    1  UNL1       -0.1464
     16 C           2.3010   97.6480   53.5760 C.ar    1  UNL1        0.1620
     17 C           3.1830   98.5780   54.3400 C.3     1  UNL1        0.0802
     18 C           2.2830   99.7110   54.8350 C.3     1  UNL1        0.0983
     19 C           3.8770   97.8680   55.5080 C.3     1  UNL1        0.0110
     20 C           4.6090   98.8690   56.3960 C.3     1  UNL1        0.0202
     21 C           3.6810   99.9640   56.8990 C.3     1  UNL1        0.0730
     22 C           2.6770   99.4600   57.9200 C.3     1  UNL1        0.0214
     23 N           3.0060  100.5960   55.7490 N.pl3   1  UNL1       -0.3062
     24 C           2.4310  101.7990   55.9890 C.ar    1  UNL1        0.0880
     25 C           1.0850  102.0240   55.9530 C.ar    1  UNL1        0.1111
     26 C           3.0190  103.0280   56.3040 C.ar    1  UNL1        0.1361
     27 N           2.0970  103.9630   56.4530 N.ar    1  UNL1       -0.1663
     28 N           0.9190  103.3280   56.2360 N.ar    1  UNL1       -0.2481
     29 C          -0.3600  104.0330   56.3190 C.3     1  UNL1        0.1276
     30 C          -1.2470  103.7290   55.1350 C.3     1  UNL1        0.0284
@<TRIPOS>BOND
     1     2     1    1
     2     3     2   ar
     3     4     3   ar
     4     5     4   ar
     5     6     5    1
     6     7     6    1
     7     8     5   ar
     8     9     8   ar
     9    10     9   ar
    10    11    10   ar
    11    11     4   ar
    12    12     2   ar
    13    13    12   ar
    14    13    11   ar
    15    14    13   ar
    16    15    12   ar
    17    16    15   ar
    18    16    14   ar
    19    17    16    1
    20    18    17    1
    21    19    17    1
    22    20    19    1
    23    21    20    1
    24    21    22    1
    25    23    21    1
    26    23    18    1
    27    24    23    1
    28    25    24   ar
    29    26    24   ar
    30    27    26   ar
    31    28    25   ar
    32    28    27   ar
    33    29    28    1
    34    30    29    1
