@<TRIPOS>MOLECULE
5UIG_8D1_A503
 25 27 0 0 0
SMALL
GASTEIGER

@<TRIPOS>ATOM
      1  C11        1.2450   97.2490   53.1130 C.2   503  8D1503      0.4357
      2  C13        0.4090   96.3310   52.3470 C.ar  503  8D1503      0.2290
      3  C16       -0.3460   93.4030   50.6610 C.ar  503  8D1503      0.1026
      4  C17       -1.5480   92.8790   50.1420 C.ar  503  8D1503      0.0209
      5  C18       -1.5890   91.5900   49.5840 C.ar  503  8D1503      0.0013
      6  C19       -0.4220   90.8110   49.5210 C.ar  503  8D1503     -0.0042
      7  C20        0.7850   91.3190   50.0390 C.ar  503  8D1503     -0.0203
      8  C21        2.0370   90.4730   50.0340 C.3   503  8D1503      0.0311
      9  C22        0.8250   92.6130   50.5980 C.ar  503  8D1503      0.0167
     10  C24       -0.9080   96.6000   51.8780 C.ar  503  8D1503      0.2178
     11  C01       -0.2530  100.2760   57.3190 C.3   503  8D1503      0.2525
     12  O02       -0.3180   98.8650   57.2130 O.3   503  8D1503     -0.4716
     13  C03        0.8860   98.2090   57.2490 C.ar  503  8D1503      0.1387
     14  C04        1.1630   97.4110   58.3740 C.ar  503  8D1503      0.0367
     15  C05        2.3400   96.6550   58.4520 C.ar  503  8D1503      0.0031
     16  C06        3.2500   96.6850   57.3860 C.ar  503  8D1503      0.0000
     17  C07        2.9900   97.4800   56.2560 C.ar  503  8D1503      0.0029
     18  C08        1.8040   98.2420   56.1720 C.ar  503  8D1503      0.0625
     19  C09        1.4940   98.9920   54.8880 C.3   503  8D1503      0.2810
     20  N10        0.7240   98.1500   53.9670 N.pl3 503  8D1503     -0.0209
     21  N12        2.5800   97.1480   52.9800 N.2   503  8D1503      0.1990
     22  N14        0.7600   95.1340   51.9590 N.ar  503  8D1503     -0.1370
     23  N15       -0.3210   94.6870   51.2670 N.ar  503  8D1503     -0.1464
     24  N23       -1.3650   95.5660   51.2180 N.ar  503  8D1503     -0.1277
     25  N25       -1.6550   97.7740   52.0430 N.pl3 503  8D1503     -0.1034
@<TRIPOS>BOND
     1     6     5   ar
     2     6     7   ar
     3     5     4   ar
     4     8     7    1
     5     7     9   ar
     6     4     3   ar
     7     9     3   ar
     8     3    23    1
     9    24    23   ar
    10    24    10   ar
    11    23    22   ar
    12    10    25    1
    13    10     2   ar
    14    22     2   ar
    15     2     1    1
    16    21     1    2
    17     1    20    1
    18    20    19    1
    19    19    18    1
    20    18    17   ar
    21    18    13   ar
    22    17    16   ar
    23    12    13    1
    24    12    11    1
    25    13    14   ar
    26    16    15   ar
    27    14    15   ar
