@<TRIPOS>MOLECULE
8GNE_JQR_A1201
 28 31 0 0 0
SMALL
GASTEIGER

@<TRIPOS>ATOM
      1 C          -1.9100   91.4680   50.3940 C.ar    1  UNL1        0.1797
      2 C           3.5970   94.8370   52.7690 C.3     1  UNL1        0.0675
      3 C           2.3180   94.0200   52.4630 C.2     1  UNL1        0.1804
      4 C           0.1990   91.8000   50.9510 C.ar    1  UNL1        0.0423
      5 C          -0.6930   90.8270   50.4600 C.ar    1  UNL1        0.0438
      6 C           5.9430   95.2950   52.3360 C.3     1  UNL1        0.1426
      7 C           3.9360   94.9900   54.3030 C.3     1  UNL1        0.0398
      8 C          -0.5670   92.9590   51.1100 C.ar    1  UNL1        0.1636
      9 C          -0.1590   94.2700   51.6250 C.ar    1  UNL1        0.1264
     10 C          -0.6770   96.3680   51.9510 C.ar    1  UNL1        0.1862
     11 C           4.8010   94.3830   51.9500 C.3     1  UNL1        0.0398
     12 C           5.2940   95.7000   54.4810 C.3     1  UNL1        0.1426
     13 C           1.0580   94.7530   52.1900 C.ar    1  UNL1        0.0874
     14 N          -1.1100   95.2190   51.5070 N.ar    1  UNL1       -0.2193
     15 O           2.3710   92.7790   52.5580 O.2     1  UNL1       -0.2908
     16 O           6.3130   95.0820   53.7250 O.3     1  UNL1       -0.3538
     17 O          -1.8580   92.7410   50.7870 O.2     1  UNL1       -0.4489
     18 S           0.9890   96.4660   52.5470 S.2     1  UNL1       -0.0467
     19 N          -1.4770   97.4860   52.0290 N.am    1  UNL1       -0.1504
     20 C          -1.0410   98.7020   52.4870 C.2     1  UNL1        0.2722
     21 O           0.0480   98.8910   52.9180 O.2     1  UNL1       -0.2679
     22 C          -1.9040   99.8730   52.5640 C.ar    1  UNL1        0.0745
     23 C          -3.2360   99.8360   52.1440 C.ar    1  UNL1        0.1030
     24 N          -4.0560  100.9120   52.2680 N.ar    1  UNL1       -0.2480
     25 C          -3.5910  102.0550   52.8380 C.ar    1  UNL1        0.0594
     26 C          -4.4970  103.2600   52.9390 C.3     1  UNL1        0.0521
     27 C          -2.2950  102.1460   53.3140 C.ar    1  UNL1        0.0149
     28 C          -1.4680  101.0580   53.2040 C.ar    1  UNL1        0.0074
@<TRIPOS>BOND
     1     2     3    1
     2     5     4   ar
     3     5     1   ar
     4     7     2    1
     5     8     4   ar
     6     9     8    1
     7    11     2    1
     8    11     6    1
     9    12     7    1
    10    13     9   ar
    11    13     3    1
    12    14    10   ar
    13    14     9   ar
    14    15     3    2
    15    16    12    1
    16    16     6    1
    17    17     1   ar
    18    17     8   ar
    19    18    13   ar
    20    18    10   ar
    21    19    10    1
    22    20    19   am
    23    21    20    2
    24    22    20    1
    25    23    22   ar
    26    24    23   ar
    27    25    24   ar
    28    26    25    1
    29    27    25   ar
    30    28    27   ar
    31    28    22   ar
