@<TRIPOS>MOLECULE
8RW4_A1H3L_A1201
 27 29 0 0 0
SMALL
GASTEIGER

@<TRIPOS>ATOM
      1 O           3.0890   93.0280   52.7840 O.2     1  UNL1       -0.2461
      2 C           0.2440   91.7950   51.4610 C.3     1  UNL1        0.0267
      3 N           1.2650   94.0260   51.8490 N.ar    1  UNL1       -0.2474
      4 C           1.0990   92.8980   50.9150 C.3     1  UNL1        0.1137
      5 C           1.9190  103.1800   56.3070 C.ar    1  UNL1        0.1739
      6 C           0.8510  103.9990   55.9000 C.ar    1  UNL1        0.1725
      7 C          -0.1090  106.1840   55.8720 C.3     1  UNL1        0.2526
      8 C          -0.1720  103.4690   55.1300 C.ar    1  UNL1        0.0417
      9 C          -0.1300  102.1380   54.7540 C.ar    1  UNL1        0.0242
     10 C           4.0210  103.0130   57.4220 C.3     1  UNL1        0.2526
     11 C           0.3570   95.0830   51.7290 C.ar    1  UNL1        0.2850
     12 C           2.3570   93.9990   52.7000 C.ar    1  UNL1        0.3349
     13 C           3.7060   95.1550   54.3830 C.3     1  UNL1        0.1121
     14 C           4.9880   95.5880   53.7160 C.3     1  UNL1        0.0267
     15 C           1.7490   96.2620   53.3740 C.ar    1  UNL1        0.1730
     16 C           0.6660   96.2140   52.5320 C.ar    1  UNL1        0.1746
     17 C           0.8000   98.1400   53.5700 C.ar    1  UNL1        0.2720
     18 C           0.9290  101.3260   55.1460 C.ar    1  UNL1        0.1062
     19 C           1.9450  101.8490   55.9390 C.ar    1  UNL1        0.0609
     20 N           2.5660   95.1390   53.4490 N.ar    1  UNL1       -0.2647
     21 N           0.0620   97.4380   52.6700 N.ar    1  UNL1       -0.2008
     22 N           1.8480   97.4560   54.0230 N.ar    1  UNL1       -0.1895
     23 N           0.4020   99.4380   53.9310 N.2     1  UNL1       -0.1081
     24 N           1.1930   99.9750   54.7610 N.2     1  UNL1       -0.1449
     25 O           0.9270  105.3040   56.3010 O.3     1  UNL1       -0.4684
     26 O           2.8990  103.8000   57.0300 O.3     1  UNL1       -0.4683
     27 O          -0.6110   94.9680   50.9870 O.2     1  UNL1       -0.2651
@<TRIPOS>BOND
     1     4     2    1
     2     4     3    1
     3     6     5   ar
     4     8     6   ar
     5     9     8   ar
     6    11     3   ar
     7    12     3   ar
     8    12     1    2
     9    14    13    1
    10    16    15   ar
    11    16    11   ar
    12    18     9   ar
    13    19    18   ar
    14    19     5   ar
    15    20    15   ar
    16    20    13    1
    17    20    12   ar
    18    21    16   ar
    19    21    17   ar
    20    22    15   ar
    21    22    17   ar
    22    23    17    1
    23    24    23    2
    24    24    18    1
    25    25     7    1
    26    25     6    1
    27    26    10    1
    28    26     5    1
    29    27    11    2
