@<TRIPOS>MOLECULE
9H2X_A1IR1_A1226
 23 26 0 0 0
SMALL
GASTEIGER

@<TRIPOS>ATOM
      1 N          -1.5020   97.8350   52.0010 N.pl3   1  UNL1       -0.0860
      2 C          -0.5940   96.8610   52.1000 C.ar    1  UNL1        0.2594
      3 N           0.5740   97.1610   52.7210 N.ar    1  UNL1       -0.1904
      4 C           1.4650   96.1690   52.7530 C.ar    1  UNL1        0.1845
      5 C           2.7730   96.4430   53.4290 C.ar    1  UNL1        0.1187
      6 C           3.8390   95.5690   53.3130 C.ar    1  UNL1        0.0224
      7 C           4.9930   95.8190   54.0350 C.ar    1  UNL1        0.0047
      8 C           5.0590   96.9210   54.8570 C.ar    1  UNL1        0.0375
      9 C           3.9740   97.7460   54.8950 C.ar    1  UNL1        0.1490
     10 N           3.9330   98.8700   55.7620 N.ar    1  UNL1       -0.2712
     11 C           4.8810   99.1940   56.7110 C.ar    1  UNL1        0.1035
     12 C           4.4200  100.2990   57.3270 C.ar    1  UNL1        0.1197
     13 N           3.2040  100.6630   56.8250 N.ar    1  UNL1       -0.2220
     14 C           2.9330   99.7890   55.8820 C.ar    1  UNL1        0.1840
     15 N           2.8490   97.5240   54.2220 N.ar    1  UNL1       -0.2248
     16 N           1.2500   94.9400   52.2570 N.ar    1  UNL1       -0.2032
     17 C           0.0610   94.7210   51.6750 C.ar    1  UNL1        0.2014
     18 C          -0.2140   93.3870   51.1410 C.ar    1  UNL1        0.1812
     19 C           0.5860   92.3320   50.8650 C.ar    1  UNL1        0.0439
     20 C          -0.2480   91.2770   50.3940 C.ar    1  UNL1        0.0439
     21 C          -1.5330   91.7770   50.4210 C.ar    1  UNL1        0.1798
     22 O          -1.5190   93.0700   50.8620 O.2     1  UNL1       -0.4473
     23 N          -0.8950   95.6480   51.5730 N.ar    1  UNL1       -0.1888
@<TRIPOS>BOND
     1     2     1    1
     2     3     2   ar
     3     4     3   ar
     4     5     4    1
     5     6     5   ar
     6     7     6   ar
     7     8     7   ar
     8     9     8   ar
     9    10     9    1
    10    11    10   ar
    11    12    11   ar
    12    13    12   ar
    13    14    13   ar
    14    14    10   ar
    15    15     5   ar
    16    15     9   ar
    17    16     4   ar
    18    17    16   ar
    19    18    17    1
    20    19    18   ar
    21    20    19   ar
    22    21    20   ar
    23    22    21   ar
    24    22    18   ar
    25    23    17   ar
    26    23     2   ar
