@<TRIPOS>MOLECULE
5Y2R_CO2_A302
 3 2 0 0 0
SMALL
GASTEIGER

@<TRIPOS>ATOM
      1 C          -6.6920    1.3750   17.4700 C.1     1  UNL1        0.3722
      2 O          -7.5250    1.1750   16.6990 O.2     1  UNL1       -0.1861
      3 O          -5.8940    1.5460   18.1850 O.2     1  UNL1       -0.1861
@<TRIPOS>BOND
     1     2     1    2
     2     3     1    2
