@<TRIPOS>MOLECULE
1LUG_SUA_A1002
 17 17 0 0 0
SMALL
GASTEIGER

@<TRIPOS>ATOM
      1  S1        -5.8710    0.9710   16.7140 S.O2  1002  SUA1002     0.0935
      2  O1        -7.2900    1.0620   16.5870 O.2   1002  SUA1002    -0.1503
      3  O2        -5.3200    1.1160   18.0480 O.2   1002  SUA1002    -0.1503
      4  N1        -5.3410   -0.3540   16.0370 N.3   1002  SUA1002     0.0392
      5  C1        -3.3000    3.4190   14.8070 C.ar  1002  SUA1002     0.0180
      6  C2        -3.8780    2.3510   15.4770 C.ar  1002  SUA1002     0.0213
      7  C3        -5.2200    2.3270   15.7800 C.ar  1002  SUA1002     0.1251
      8  C4        -6.0210    3.3850   15.4150 C.ar  1002  SUA1002     0.0213
      9  C5        -5.4740    4.4400   14.7120 C.ar  1002  SUA1002     0.0180
     10  C6        -4.1060    4.5040   14.4680 C.ar  1002  SUA1002     0.0741
     11  N2        -3.5830    5.6340   13.8630 N.am  1002  SUA1002    -0.1731
     12  C7        -4.1120    6.1900   12.8690 C.2   1002  SUA1002     0.2534
     13  S2        -2.9780    7.0980   12.2220 S.2   1002  SUA1002     0.0079
     14  O3        -5.4650    6.3790   12.3490 O.3   1002  SUA1002    -0.4571
     15  C8        -6.2030    7.4780   11.6270 C.3   1002  SUA1002     0.2074
     16  C9        -6.7280    6.7050   10.4240 C.3   1002  SUA1002     0.0474
     17  C10       -7.1300    7.8730    9.5080 C.3   1002  SUA1002     0.0040
@<TRIPOS>BOND
     1    17    16    1
     2    16    15    1
     3    15    14    1
     4    13    12    2
     5    14    12    1
     6    12    11    1
     7    11    10    1
     8    10     9   ar
     9    10     5   ar
    10     9     8   ar
    11     5     6   ar
    12     8     7   ar
    13     6     7   ar
    14     7     1    1
    15     4     1    1
    16     2     1    2
    17     1     3    2
