@<TRIPOS>MOLECULE
2WEG_FBV_A1263
 11 11 0 0 0
SMALL
GASTEIGER

@<TRIPOS>ATOM
      1 C          -3.9180    4.3920   14.2100 C.ar    1  UNL1        0.0024
      2 C          -5.2970    4.3740   14.3980 C.ar    1  UNL1        0.0015
      3 C          -5.9290    3.3750   15.1580 C.ar    1  UNL1        0.0223
      4 C          -5.1410    2.3270   15.7190 C.ar    1  UNL1        0.1523
      5 C          -3.7290    2.4310   15.4790 C.ar    1  UNL1        0.1587
      6 C          -3.1290    3.4230   14.7550 C.ar    1  UNL1        0.0310
      7 S          -5.8490    1.0340   16.6780 S.O2    1  UNL1        0.0957
      8 N          -5.3830   -0.3570   16.0330 N.3     1  UNL1        0.0393
      9 O          -5.2690    1.2060   18.0240 O.2     1  UNL1       -0.1502
     10 O          -7.2520    1.1850   16.4990 O.2     1  UNL1       -0.1502
     11 F          -2.9790    1.4730   16.0690 F       1  UNL1       -0.2028
@<TRIPOS>BOND
     1     2     1   ar
     2     3     2   ar
     3     4     3   ar
     4     5     4   ar
     5     6     5   ar
     6     6     1   ar
     7     7     4    1
     8     7     8    1
     9     9     7    2
    10    10     7    2
    11    11     5    1
