@<TRIPOS>MOLECULE
3D93_CO2_A301
 3 2 0 0 0
SMALL
GASTEIGER

@<TRIPOS>ATOM
      1 C          -6.6610    1.1170   17.4030 C.1     1  UNL1        0.3722
      2 O          -7.5040    1.3410   16.5490 O.2     1  UNL1       -0.1861
      3 O          -5.8200    0.8930   18.2570 O.2     1  UNL1       -0.1861
@<TRIPOS>BOND
     1     2     1    2
     2     3     1    2
