@<TRIPOS>MOLECULE
3U7C_CO2_A301
 3 2 0 0 0
SMALL
GASTEIGER

@<TRIPOS>ATOM
      1 C          -6.5140    1.0980   17.3370 C.1     1  UNL1        0.3722
      2 O          -7.4580    0.9890   16.6010 O.2     1  UNL1       -0.1861
      3 O          -5.6060    1.2270   18.1080 O.2     1  UNL1       -0.1861
@<TRIPOS>BOND
     1     2     1    2
     2     3     1    2
