@<TRIPOS>MOLECULE
4FVO_0VV_A303
 15 16 0 0 0
SMALL
GASTEIGER

@<TRIPOS>ATOM
      1 C          -2.8230    6.7050   12.5400 C.ar    1  UNL1       -0.0000
      2 C          -1.7030    6.0520   12.9560 C.ar    1  UNL1        0.0028
      3 C          -1.6970    4.9460   13.8250 C.ar    1  UNL1        0.0345
      4 C          -5.4570    4.8450   14.4590 C.3     1  UNL1        0.2364
      5 C          -4.2780    2.8580   15.4040 C.cat   1  UNL1        0.4654
      6 C          -2.9490    4.5160   14.2960 C.ar    1  UNL1        0.1475
      7 C          -4.1530    5.1930   13.8770 C.ar    1  UNL1        0.0503
      8 C          -4.0380    6.2380   12.9530 C.ar    1  UNL1        0.0017
      9 N          -3.0750    3.3980   15.0440 N.pl3   1  UNL1       -0.0363
     10 N          -5.4380    3.4740   15.0430 N.pl3   1  UNL1       -0.0566
     11 N          -4.1700    1.7680   16.2290 N.2     1  UNL1        0.0778
     12 S          -5.4550    0.9240   16.6480 S.O2    1  UNL1        0.2281
     13 N          -5.2140   -0.4820   16.0120 N.3     1  UNL1        0.0732
     14 O          -6.7160    1.4350   16.1960 O.2     1  UNL1       -0.1174
     15 O          -5.3370    0.8510   18.1000 O.2     1  UNL1       -0.1174
@<TRIPOS>BOND
     1     2     1   ar
     2     3     2   ar
     3     6     3   ar
     4     7     4    1
     5     7     6   ar
     6     8     7   ar
     7     8     1   ar
     8     9     6    1
     9     9     5    1
    10    10     4    1
    11    10     5    1
    12    11     5    2
    13    12    11    1
    14    12    13    1
    15    14    12    2
    16    15    12    2
