@<TRIPOS>MOLECULE
4WW6_3TV_A306
 18 18 0 0 0
SMALL
GASTEIGER

@<TRIPOS>ATOM
      1 F          -6.1300    5.6520   15.1490 F       1  UNL1       -0.2012
      2 C          -5.6150    4.4180   14.9560 C.ar    1  UNL1        0.1766
      3 C          -5.9480    3.4140   15.8010 C.ar    1  UNL1        0.1888
      4 F          -6.7640    3.7460   16.8630 F       1  UNL1       -0.2003
      5 C          -4.8390    4.1930   13.8800 C.ar    1  UNL1        0.0848
      6 S          -4.5020    5.4760   12.7280 S.3     1  UNL1       -0.1091
      7 C          -2.7330    5.4560   12.5660 C.3     1  UNL1        0.0623
      8 C          -2.0790    5.7160   13.8370 C.3     1  UNL1        0.0120
      9 C          -2.1930    7.0860   14.3740 C.3     1  UNL1        0.0009
     10 C          -4.3500    2.8960   13.7440 C.ar    1  UNL1        0.1766
     11 F          -3.5800    2.5780   12.7240 F       1  UNL1       -0.2012
     12 C          -4.6910    1.8760   14.6460 C.ar    1  UNL1        0.1888
     13 F          -4.1800    0.6840   14.3850 F       1  UNL1       -0.2003
     14 C          -5.4970    2.1530   15.7060 C.ar    1  UNL1        0.1841
     15 S          -5.9690    0.8980   16.8400 S.O2    1  UNL1        0.0980
     16 O          -7.3970    0.9750   16.7710 O.2     1  UNL1       -0.1502
     17 O          -5.3140    1.2110   18.0770 O.2     1  UNL1       -0.1502
     18 N          -5.4920   -0.4660   16.2800 N.3     1  UNL1        0.0394
@<TRIPOS>BOND
     1     2     1    1
     2     3     2   ar
     3     4     3    1
     4     5     2   ar
     5     6     5    1
     6     7     6    1
     7     8     7    1
     8     9     8    1
     9    10     5   ar
    10    11    10    1
    11    12    10   ar
    12    13    12    1
    13    14     3   ar
    14    14    12   ar
    15    15    14    1
    16    16    15    2
    17    17    15    2
    18    15    18    1
