@<TRIPOS>MOLECULE
4YXI_4J8_A303
 11 11 0 0 0
SMALL
GASTEIGER

@<TRIPOS>ATOM
      1 C          -4.1250    4.4830   14.2840 C.ar    1  UNL1       -0.0218
      2 C          -3.3260    3.4150   14.6640 C.ar    1  UNL1       -0.0029
      3 C          -5.1790    2.3360   15.7180 C.ar    1  UNL1        0.1250
      4 C          -5.4680    4.4470   14.6310 C.ar    1  UNL1       -0.0029
      5 O          -7.2640    1.0580   16.5490 O.2     1  UNL1       -0.1503
      6 S          -5.8410    0.9980   16.6800 S.O2    1  UNL1        0.0935
      7 O          -5.2940    1.1260   18.0080 O.2     1  UNL1       -0.1503
      8 N          -5.3250   -0.3700   16.0500 N.3     1  UNL1        0.0392
      9 C          -3.8380    2.3420   15.3780 C.ar    1  UNL1        0.0197
     10 C          -6.0050    3.3840   15.3420 C.ar    1  UNL1        0.0197
     11 C          -3.5530    5.6540   13.5260 C.3     1  UNL1        0.0310
@<TRIPOS>BOND
     1     2     1   ar
     2     4     1   ar
     3     6     5    2
     4     6     3    1
     5     7     6    2
     6     6     8    1
     7     9     3   ar
     8     9     2   ar
     9    10     4   ar
    10    10     3   ar
    11    11     1    1
