@<TRIPOS>MOLECULE
5LLC_V26_A308
 26 27 0 0 0
SMALL
GASTEIGER

@<TRIPOS>ATOM
      1 O          -3.3490    6.5580   12.6990 O.2     1  UNL1       -0.1685
      2 S          -2.5070    5.6830   13.5470 S.O2    1  UNL1        0.0125
      3 O          -1.7400    6.3800   14.5690 O.2     1  UNL1       -0.1685
      4 C          -3.5260    4.4690   14.3470 C.ar    1  UNL1        0.1522
      5 C          -2.8570    3.5320   15.1520 C.ar    1  UNL1        0.1871
      6 F          -1.5460    3.5980   15.3210 F       1  UNL1       -0.2003
      7 C          -3.5680    2.4870   15.7550 C.ar    1  UNL1        0.1895
      8 F          -2.8630    1.5740   16.4410 F       1  UNL1       -0.2003
      9 C          -4.9230    4.3540   14.1770 C.ar    1  UNL1        0.1135
     10 N          -5.6470    5.2320   13.3990 N.pl3   1  UNL1       -0.2321
     11 C          -6.7740    4.8060   12.5590 C.3     1  UNL1        0.1356
     12 C          -5.5770    3.3270   14.9080 C.ar    1  UNL1        0.1770
     13 F          -6.9010    3.3580   14.8500 F       1  UNL1       -0.2013
     14 C          -4.9670    2.3710   15.6990 C.ar    1  UNL1        0.1832
     15 S          -5.7580    1.0690   16.6400 S.O2    1  UNL1        0.0980
     16 O          -5.2160    1.3030   17.9720 O.2     1  UNL1       -0.1502
     17 N          -5.3120   -0.3270   16.0530 N.3     1  UNL1        0.0394
     18 O          -7.1670    1.2410   16.4340 O.2     1  UNL1       -0.1502
     19 C          -1.3830    4.7720   12.5190 C.3     1  UNL1        0.1607
     20 C          -2.0110    4.2320   11.2380 C.3     1  UNL1        0.0521
     21 C          -2.9200    3.0790   11.3830 C.ar    1  UNL1       -0.0204
     22 C          -2.7840    2.0260   12.3310 C.ar    1  UNL1       -0.0042
     23 C          -3.6710    1.0040   12.4560 C.ar    1  UNL1       -0.0003
     24 C          -4.7500    0.9760   11.5510 C.ar    1  UNL1       -0.0000
     25 C          -4.9360    2.0670   10.6870 C.ar    1  UNL1       -0.0003
     26 C          -4.0690    3.1310   10.6480 C.ar    1  UNL1       -0.0042
@<TRIPOS>BOND
     1     2     1    2
     2     3     2    2
     3     4     2    1
     4     5     4   ar
     5     6     5    1
     6     7     5   ar
     7     8     7    1
     8     9     4   ar
     9    10     9    1
    10    11    10    1
    11    12     9   ar
    12    13    12    1
    13    14    12   ar
    14    14     7   ar
    15    15    14    1
    16    16    15    2
    17    15    17    1
    18    18    15    2
    19     2    19    1
    20    20    19    1
    21    21    20    1
    22    22    21   ar
    23    23    22   ar
    24    24    23   ar
    25    25    24   ar
    26    26    25   ar
    27    26    21   ar
