@<TRIPOS>MOLECULE
5OGO_WWO_A302
 27 28 0 0 0
SMALL
GASTEIGER

@<TRIPOS>ATOM
      1 F          -7.0660    3.1310   14.7220 F       1  UNL1       -0.2013
      2 C          -5.7380    3.1050   14.7740 C.ar    1  UNL1        0.1770
      3 C          -5.0690    2.2160   15.6110 C.ar    1  UNL1        0.1832
      4 S          -5.8850    1.0120   16.7020 S.O2    1  UNL1        0.0980
      5 O          -7.2830    1.2110   16.5270 O.2     1  UNL1       -0.1502
      6 N          -5.4560   -0.3870   16.1570 N.3     1  UNL1        0.0394
      7 O          -5.3050    1.3050   17.9910 O.2     1  UNL1       -0.1502
      8 C          -3.6850    2.2680   15.6110 C.ar    1  UNL1        0.1895
      9 F          -2.9850    1.4210   16.3500 F       1  UNL1       -0.2003
     10 C          -3.0040    3.1740   14.8300 C.ar    1  UNL1        0.1871
     11 F          -1.6770    3.1930   14.9570 F       1  UNL1       -0.2003
     12 C          -5.0580    4.0060   13.9060 C.ar    1  UNL1        0.1138
     13 C          -3.6770    4.0210   13.9470 C.ar    1  UNL1        0.1523
     14 S          -2.6580    5.1260   12.9860 S.O2    1  UNL1        0.0148
     15 O          -1.9340    5.9800   13.9450 O.2     1  UNL1       -0.1684
     16 O          -3.4660    5.7230   11.9630 O.2     1  UNL1       -0.1684
     17 C          -1.4630    4.1710   12.2420 C.3     1  UNL1        0.1914
     18 C          -2.0960    3.4120   11.0660 C.3     1  UNL1        0.2078
     19 O          -3.2250    2.5840   11.3550 O.3     1  UNL1       -0.2184
     20 N          -5.8570    4.7710   13.0310 N.pl3   1  UNL1       -0.2291
     21 C          -6.7020    5.7900   13.6460 C.3     1  UNL1        0.1387
     22 C          -5.9110    6.9770   14.1330 C.ar    1  UNL1       -0.0007
     23 C          -5.5910    7.1170   15.5040 C.ar    1  UNL1       -0.0026
     24 C          -4.8180    8.1460   15.9560 C.ar    1  UNL1       -0.0003
     25 C          -4.3320    9.0870   15.0200 C.ar    1  UNL1       -0.0000
     26 C          -4.6210    8.9580   13.6980 C.ar    1  UNL1       -0.0003
     27 C          -5.4130    7.9170   13.2360 C.ar    1  UNL1       -0.0026
@<TRIPOS>BOND
     1     2     1    1
     2     3     2   ar
     3     4     3    1
     4     5     4    2
     5     4     6    1
     6     7     4    2
     7     8     3   ar
     8     9     8    1
     9    10     8   ar
    10    11    10    1
    11    12     2   ar
    12    13    12   ar
    13    13    10   ar
    14    14    13    1
    15    15    14    2
    16    16    14    2
    17    14    17    1
    18    18    17    1
    19    19    18    1
    20    20    12    1
    21    21    20    1
    22    22    21    1
    23    23    22   ar
    24    24    23   ar
    25    25    24   ar
    26    26    25   ar
    27    27    22   ar
    28    27    26   ar
