@<TRIPOS>MOLECULE
5Y2R_CO2_A302
 3 2 0 0 0
SMALL
GASTEIGER

@<TRIPOS>ATOM
      1 C          -6.6960    1.3650   17.4840 C.1     1  UNL1        0.3722
      2 O          -7.5280    1.1670   16.7110 O.2     1  UNL1       -0.1861
      3 O          -5.9000    1.5330   18.2000 O.2     1  UNL1       -0.1861
@<TRIPOS>BOND
     1     2     1    2
     2     3     1    2
