@<TRIPOS>MOLECULE
5Y2S_CO2_A302
 3 2 0 0 0
SMALL
GASTEIGER

@<TRIPOS>ATOM
      1 C          -6.7680    1.3860   17.4950 C.1     1  UNL1        0.3722
      2 O          -7.6160    1.1680   16.7340 O.2     1  UNL1       -0.1861
      3 O          -5.9930    1.5940   18.2360 O.2     1  UNL1       -0.1861
@<TRIPOS>BOND
     1     2     1    2
     2     3     1    2
