@<TRIPOS>MOLECULE
6G3Q_FO9_A302
 20 20 0 0 0
SMALL
GASTEIGER

@<TRIPOS>ATOM
      1 C          -4.2380    3.3840   13.6850 C.3     1  UNL1        0.1399
      2 C          -4.7380    4.8030   13.8880 C.3     1  UNL1        0.0710
      3 N          -2.6710   11.1180   11.8520 N.pl3   1  UNL1        0.1335
      4 O          -4.9050    1.4090   17.6700 O.2     1  UNL1       -0.1102
      5 S          -5.8220    1.0120   16.6330 S.O2    1  UNL1        0.2536
      6 O          -7.2490    0.9740   16.8070 O.2     1  UNL1       -0.1102
      7 N          -5.2580   -0.3690   16.0180 N.3     1  UNL1        0.0809
      8 N          -5.6500    2.1500   15.4170 N.2     1  UNL1        0.1133
      9 C          -4.4300    2.5150   14.8820 C.2     1  UNL1        0.4184
     10 N          -3.3410    2.0450   15.4990 N.pl3   1  UNL1        0.2132
     11 S          -3.4860    5.9730   14.5130 S.3     1  UNL1       -0.1337
     12 C          -2.5180    6.3920   13.0340 C.3     1  UNL1        0.0970
     13 C          -1.4710    7.4230   13.2860 C.2     1  UNL1        0.0514
     14 N          -1.6720    8.3340   14.3090 N.am    1  UNL1       -0.1830
     15 C          -0.6260    9.1480   14.3860 C.2     1  UNL1        0.2475
     16 S           0.6260    8.8620   13.2500 S.3     1  UNL1       -0.0568
     17 C          -0.3040    7.5580   12.6170 C.3     1  UNL1        0.1056
     18 N          -1.5240   10.5500   13.8090 N.am    1  UNL1       -0.0059
     19 C          -1.9980   11.4710   12.9250 C.2     1  UNL1        0.5311
     20 N          -1.7750   12.7380   13.1890 N.pl3   1  UNL1        0.1335
@<TRIPOS>BOND
     1     2     1    1
     2     5     4    2
     3     6     5    2
     4     5     7    1
     5     8     5    1
     6     9     8    2
     7     9     1    1
     8    10     9    1
     9    11     2    1
    10    12    11    1
    11    13    12    1
    12    14    13    2
    13    15    14    1
    14    16    15    2
    15    17    16    1
    16    17    13    1
    17    18    15    1
    18    19    18    2
    19    19     3    1
    20    20    19    1
