@<TRIPOS>MOLECULE
6KM0_BCT_A303
 5 4 0 0 0
SMALL
GASTEIGER

@<TRIPOS>ATOM
      1 C          -5.5220    0.6460   16.6590 C.2     1  UNL1        0.2305
      2 O          -6.3710    1.3030   15.9860 O.co2   1  UNL1       -0.5152
      3 O          -4.7130    1.4100   17.2910 O.co2   1  UNL1       -0.5152
      4 O          -5.5430   -0.5180   16.4750 O.3     1  UNL1       -0.4935
      5 H          -5.0450   -0.9940   16.9950 H       1  UNL1        0.2934
@<TRIPOS>UNITY_ATOM_ATTR
3 1
charge -1
@<TRIPOS>BOND
     1     2     1   ar
     2     3     1   ar
     3     4     1    1
     4     5     4    1
