@<TRIPOS>MOLECULE
6KM0_BCT_A303
 5 4 0 0 0
SMALL
GASTEIGER

@<TRIPOS>ATOM
      1 C          -5.5210    0.6360   16.6720 C.2     1  UNL1        0.2305
      2 O          -6.3680    1.2960   16.0000 O.co2   1  UNL1       -0.5152
      3 O          -4.7110    1.3970   17.3070 O.co2   1  UNL1       -0.5152
      4 O          -5.5440   -0.5280   16.4870 O.3     1  UNL1       -0.4935
      5 H          -5.0470   -1.0060   17.0060 H       1  UNL1        0.2934
@<TRIPOS>UNITY_ATOM_ATTR
3 1
charge -1
@<TRIPOS>BOND
     1     2     1   ar
     2     3     1   ar
     3     4     1    1
     4     5     4    1
