@<TRIPOS>MOLECULE
6KM1_CO2_A305
 3 2 0 0 0
SMALL
GASTEIGER

@<TRIPOS>ATOM
      1 C          -6.5460    1.1980   17.3480 C.1     1  UNL1        0.3722
      2 O          -7.4300    1.0280   16.6350 O.2     1  UNL1       -0.1861
      3 O          -5.6570    1.3470   18.0650 O.2     1  UNL1       -0.1861
@<TRIPOS>BOND
     1     2     1    2
     2     3     1    2
