@<TRIPOS>MOLECULE
6KM1_CO2_A305
 3 2 0 0 0
SMALL
GASTEIGER

@<TRIPOS>ATOM
      1 C          -6.5440    1.1940   17.3640 C.1     1  UNL1        0.3722
      2 O          -7.4270    1.0260   16.6490 O.2     1  UNL1       -0.1861
      3 O          -5.6560    1.3390   18.0830 O.2     1  UNL1       -0.1861
@<TRIPOS>BOND
     1     2     1    2
     2     3     1    2
