@<TRIPOS>MOLECULE
6KM2_BCT_A304
 5 4 0 0 0
SMALL
GASTEIGER

@<TRIPOS>ATOM
      1 C          -5.5360    0.6430   16.6840 C.2     1  UNL1        0.2305
      2 O          -6.3800    1.3050   15.9750 O.co2   1  UNL1       -0.5152
      3 O          -4.6400    1.3680   17.2850 O.co2   1  UNL1       -0.5152
      4 O          -5.5310   -0.5860   16.5400 O.3     1  UNL1       -0.4935
      5 H          -4.8610   -0.9770   17.1170 H       1  UNL1        0.2934
@<TRIPOS>UNITY_ATOM_ATTR
3 1
charge -1
@<TRIPOS>BOND
     1     2     1   ar
     2     3     1   ar
     3     4     1    1
     4     5     4    1
