@<TRIPOS>MOLECULE
6KM2_BCT_A304
 5 4 0 0 0
SMALL
GASTEIGER

@<TRIPOS>ATOM
      1 C          -5.5350    0.6360   16.7040 C.2     1  UNL1        0.2305
      2 O          -6.3770    1.3020   15.9950 O.co2   1  UNL1       -0.5152
      3 O          -4.6390    1.3590   17.3080 O.co2   1  UNL1       -0.5152
      4 O          -5.5330   -0.5920   16.5570 O.3     1  UNL1       -0.4935
      5 H          -4.8630   -0.9850   17.1340 H       1  UNL1        0.2934
@<TRIPOS>UNITY_ATOM_ATTR
3 1
charge -1
@<TRIPOS>BOND
     1     2     1   ar
     2     3     1   ar
     3     4     1    1
     4     5     4    1
