@<TRIPOS>MOLECULE
6RG5_S2O_A304
 13 13 0 0 0
SMALL
GASTEIGER

@<TRIPOS>ATOM
      1 O          -7.3160    1.0500   16.5900 O.2     1  UNL1       -0.1503
      2 S          -5.8950    0.9950   16.7480 S.O2    1  UNL1        0.0935
      3 O          -5.3780    1.0660   18.0790 O.2     1  UNL1       -0.1503
      4 N          -5.3420   -0.3270   16.0320 N.3     1  UNL1        0.0392
      5 C          -5.2370    2.3900   15.8730 C.ar    1  UNL1        0.1250
      6 C          -6.0750    3.4240   15.4830 C.ar    1  UNL1        0.0197
      7 C          -3.8760    2.4620   15.6150 C.ar    1  UNL1        0.0197
      8 C          -3.3620    3.5730   14.9630 C.ar    1  UNL1       -0.0028
      9 C          -4.1860    4.6160   14.5670 C.ar    1  UNL1       -0.0195
     10 C          -5.5440    4.5250   14.8320 C.ar    1  UNL1       -0.0028
     11 C          -3.6190    5.8350   13.8790 C.3     1  UNL1        0.0619
     12 C          -3.1500    5.5420   12.4690 C.3     1  UNL1        0.1868
     13 O          -4.1970    4.9900   11.7060 O.3     1  UNL1       -0.2200
@<TRIPOS>BOND
     1     2     1    2
     2     3     2    2
     3     2     4    1
     4     5     2    1
     5     6     5   ar
     6     7     5   ar
     7     8     7   ar
     8     9     8   ar
     9    10     6   ar
    10    10     9   ar
    11    11     9    1
    12    12    11    1
    13    13    12    1
