@<TRIPOS>MOLECULE
6RH4_4NZ_A308
 13 13 0 0 0
SMALL
GASTEIGER

@<TRIPOS>ATOM
      1 S          -5.8740    0.9750   16.7400 S.O2    1  UNL1        0.0935
      2 C          -4.0930    4.4970   14.5430 C.ar    1  UNL1        0.2901
      3 N          -5.3370   -0.3410   16.0790 N.3     1  UNL1        0.0392
      4 O          -5.3540    1.1080   18.0790 O.2     1  UNL1       -0.1503
      5 C          -5.4490    4.4960   14.7990 C.ar    1  UNL1        0.0766
      6 O          -7.3150    1.0710   16.5880 O.2     1  UNL1       -0.1503
      7 C          -6.0110    3.4090   15.4550 C.ar    1  UNL1        0.0263
      8 C          -5.2020    2.3410   15.8290 C.ar    1  UNL1        0.1255
      9 C          -3.8340    2.3640   15.5660 C.ar    1  UNL1        0.0263
     10 C          -3.2770    3.4520   14.9160 C.ar    1  UNL1        0.0766
     11 N          -3.4930    5.6520   13.8820 N.pl3   1  UNL1        0.0809
     12 O          -4.2210    6.5850   13.5710 O.2     1  UNL1        0.0415
     13 O          -2.2810    5.6540   13.7100 O.co2   1  UNL1       -0.5760
@<TRIPOS>UNITY_ATOM_ATTR
11 1
charge 1
13 1
charge -1
@<TRIPOS>BOND
     1     1     3    1
     2     4     1    2
     3     5     2   ar
     4     6     1    2
     5     7     5   ar
     6     8     7   ar
     7     8     1    1
     8     9     8   ar
     9    10     9   ar
    10    10     2   ar
    11    11     2    1
    12    12    11    2
    13    13    11    1
