@<TRIPOS>MOLECULE
6RIT_FBV_A306
 11 11 0 0 0
SMALL
GASTEIGER

@<TRIPOS>ATOM
      1 C          -4.1750    4.6070   14.4810 C.ar    1  UNL1        0.0024
      2 C          -5.5330    4.5230   14.7000 C.ar    1  UNL1        0.0015
      3 C          -6.0740    3.4340   15.3770 C.ar    1  UNL1        0.0223
      4 C          -5.2480    2.4120   15.8510 C.ar    1  UNL1        0.1523
      5 C          -3.8830    2.5380   15.6360 C.ar    1  UNL1        0.1587
      6 C          -3.3320    3.6100   14.9490 C.ar    1  UNL1        0.0310
      7 S          -5.9140    1.0240   16.7750 S.O2    1  UNL1        0.0957
      8 N          -5.4010   -0.3120   16.0590 N.3     1  UNL1        0.0393
      9 O          -5.3710    1.1510   18.1030 O.2     1  UNL1       -0.1502
     10 O          -7.3360    1.1060   16.6260 O.2     1  UNL1       -0.1502
     11 F          -3.0450    1.5960   16.1420 F       1  UNL1       -0.2028
@<TRIPOS>BOND
     1     2     1   ar
     2     3     2   ar
     3     4     3   ar
     4     5     4   ar
     5     6     5   ar
     6     6     1   ar
     7     7     4    1
     8     7     8    1
     9     9     7    2
    10    10     7    2
    11    11     5    1
