@<TRIPOS>MOLECULE
6RRI_KFH_A304
 14 14 0 0 0
SMALL
GASTEIGER

@<TRIPOS>ATOM
      1 C          -4.3600    2.9900   13.6910 C.ar    1  UNL1        0.1711
      2 C          -4.7330    1.9570   14.5220 C.ar    1  UNL1        0.1883
      3 N          -5.4880   -0.4530   16.2620 N.3     1  UNL1        0.0394
      4 C          -5.4890    2.2060   15.6670 C.ar    1  UNL1        0.1840
      5 O          -5.3460    1.2480   18.0500 O.2     1  UNL1       -0.1502
      6 C          -5.8780    3.5170   15.8950 C.ar    1  UNL1        0.1883
      7 C          -5.5040    4.5260   15.0390 C.ar    1  UNL1        0.1711
      8 C          -4.7340    4.2860   13.9350 C.ar    1  UNL1        0.0640
      9 F          -6.6490    3.8260   16.9500 F       1  UNL1       -0.2003
     10 F          -5.9290    5.7760   15.2960 F       1  UNL1       -0.2017
     11 F          -3.5680    2.7120   12.6320 F       1  UNL1       -0.2017
     12 F          -4.3770    0.7070   14.1670 F       1  UNL1       -0.2003
     13 O          -7.4330    0.9900   16.7460 O.2     1  UNL1       -0.1502
     14 S          -5.9940    0.9430   16.8090 S.O2    1  UNL1        0.0980
@<TRIPOS>BOND
     1     2     1   ar
     2     4     2   ar
     3     6     4   ar
     4     7     6   ar
     5     8     7   ar
     6     8     1   ar
     7     9     6    1
     8    10     7    1
     9    11     1    1
    10    12     2    1
    11    14     4    1
    12    14     3    1
    13    14    13    2
    14    14     5    2
