@<TRIPOS>MOLECULE
6RS5_KGK_A306
 15 15 0 0 0
SMALL
GASTEIGER

@<TRIPOS>ATOM
      1 C          -5.5100    2.2150   15.7530 C.ar    1  UNL1        0.1840
      2 C          -5.8810    3.5220   16.0810 C.ar    1  UNL1        0.1880
      3 C          -5.4980    4.5700   15.2650 C.ar    1  UNL1        0.1670
      4 N          -5.4530   -0.4950   16.3130 N.3     1  UNL1        0.0394
      5 C          -4.3280    5.5590   13.2530 C.3     1  UNL1        0.0359
      6 O          -7.4290    0.8900   16.7980 O.2     1  UNL1       -0.1502
      7 C          -4.7540    4.3980   14.1230 C.ar    1  UNL1        0.0376
      8 C          -4.4010    3.0950   13.8070 C.ar    1  UNL1        0.1670
      9 C          -4.7690    2.0220   14.5850 C.ar    1  UNL1        0.1880
     10 F          -3.6690    2.8640   12.7010 F       1  UNL1       -0.2020
     11 F          -4.4170    0.7970   14.1550 F       1  UNL1       -0.2003
     12 F          -6.5730    3.8020   17.2060 F       1  UNL1       -0.2003
     13 F          -5.8330    5.8220   15.6430 F       1  UNL1       -0.2020
     14 O          -5.3560    1.2110   18.1060 O.2     1  UNL1       -0.1502
     15 S          -5.9880    0.8930   16.8580 S.O2    1  UNL1        0.0980
@<TRIPOS>BOND
     1     2     1   ar
     2     3     2   ar
     3     7     3   ar
     4     7     5    1
     5     8     7   ar
     6     9     1   ar
     7     9     8   ar
     8    10     8    1
     9    11     9    1
    10    12     2    1
    11    13     3    1
    12    15     4    1
    13    15     1    1
    14    15     6    2
    15    15    14    2
