@<TRIPOS>MOLECULE
6RZX_KPQ_A302
 17 16 0 0 0
SMALL
GASTEIGER

@<TRIPOS>ATOM
      1 C          -4.3720    4.4700   14.7020 C.3     1  UNL1        0.4104
      2 F          -5.4210    6.4280   15.4850 F       1  UNL1       -0.1648
      3 C          -4.9530    5.8540   14.4160 C.3     1  UNL1        0.4604
      4 F          -5.8930    5.7960   13.5170 F       1  UNL1       -0.1648
      5 F          -4.0380    6.6490   13.9170 F       1  UNL1       -0.1648
      6 F          -3.9440    3.9360   13.5860 F       1  UNL1       -0.1888
      7 F          -3.3260    4.6440   15.4980 F       1  UNL1       -0.1888
      8 C          -5.3540    3.4790   15.3720 C.3     1  UNL1        0.4028
      9 F          -5.6650    3.9580   16.5660 F       1  UNL1       -0.1900
     10 F          -6.4610    3.4620   14.6350 F       1  UNL1       -0.1900
     11 C          -4.8460    1.9940   15.5460 C.3     1  UNL1        0.4476
     12 F          -4.8860    1.4570   14.3160 F       1  UNL1       -0.1725
     13 F          -3.5490    2.0500   15.9340 F       1  UNL1       -0.1725
     14 S          -5.7830    0.9820   16.7140 S.O2    1  UNL1        0.1346
     15 O          -5.2350    1.3600   17.9920 O.2     1  UNL1       -0.1494
     16 O          -7.1520    1.3100   16.4330 O.2     1  UNL1       -0.1494
     17 N          -5.4620   -0.4590   16.3090 N.3     1  UNL1        0.0400
@<TRIPOS>BOND
     1     3     1    1
     2     3     2    1
     3     4     3    1
     4     5     3    1
     5     1     6    1
     6     7     1    1
     7     8     1    1
     8     8     9    1
     9    10     8    1
    10    11     8    1
    11    11    12    1
    12    13    11    1
    13    14    11    1
    14    15    14    2
    15    16    14    2
    16    14    17    1
