@<TRIPOS>MOLECULE
6SBH_L4K_A304
 15 15 0 0 0
SMALL
GASTEIGER

@<TRIPOS>ATOM
      1 N          -5.3370   -0.3390   16.0440 N.3     1  UNL1        0.0392
      2 C          -1.4070    9.0590   15.0740 C.3     1  UNL1        0.0000
      3 O          -5.3010    1.1400   18.0570 O.2     1  UNL1       -0.1503
      4 C          -1.1280    8.4290   13.7740 C.3     1  UNL1        0.0000
      5 C          -5.6670    4.4850   14.7300 C.ar    1  UNL1       -0.0029
      6 C          -2.3410    7.7050   13.2770 C.3     1  UNL1        0.0003
      7 C          -2.8380    6.5810   14.1750 C.3     1  UNL1        0.0047
      8 C          -3.8500    5.7040   13.4730 C.3     1  UNL1        0.0264
      9 C          -4.3480    4.5470   14.3050 C.ar    1  UNL1       -0.0221
     10 C          -3.4970    3.5070   14.6520 C.ar    1  UNL1       -0.0029
     11 C          -3.9480    2.4250   15.3970 C.ar    1  UNL1        0.0197
     12 C          -5.2800    2.3710   15.7910 C.ar    1  UNL1        0.1250
     13 C          -6.1400    3.4090   15.4650 C.ar    1  UNL1        0.0197
     14 O          -7.3040    1.0490   16.6330 O.2     1  UNL1       -0.1503
     15 S          -5.8820    0.9920   16.7340 S.O2    1  UNL1        0.0935
@<TRIPOS>BOND
     1     4     2    1
     2     6     4    1
     3     7     6    1
     4     8     7    1
     5     9     5   ar
     6     9     8    1
     7    10     9   ar
     8    11    10   ar
     9    12    11   ar
    10    13     5   ar
    11    13    12   ar
    12    15    14    2
    13    15    12    1
    14    15     1    1
    15    15     3    2
