@<TRIPOS>MOLECULE
6SBM_L4W_A306
 16 16 0 0 0
SMALL
GASTEIGER

@<TRIPOS>ATOM
      1 C          -2.4280    5.5870   13.3740 C.3     1  UNL1        0.2054
      2 C          -4.2710    4.5350   14.5080 C.ar    1  UNL1        0.1386
      3 C          -5.5980    4.5130   14.8900 C.ar    1  UNL1        0.0383
      4 C          -6.1090    3.4140   15.5640 C.ar    1  UNL1        0.0231
      5 C          -5.2760    2.3470   15.8600 C.ar    1  UNL1        0.1252
      6 C          -3.9500    2.3590   15.4690 C.ar    1  UNL1        0.0231
      7 C          -3.4490    3.4580   14.7840 C.ar    1  UNL1        0.0383
      8 N          -5.3660   -0.3590   16.0730 N.3     1  UNL1        0.0392
      9 C          -1.1660    9.6820   14.7870 C.3     1  UNL1        0.0000
     10 O          -3.7920    5.6260   13.8260 O.3     1  UNL1       -0.4755
     11 C          -1.2680    8.2560   14.3040 C.3     1  UNL1        0.0001
     12 C          -2.3090    8.0760   13.2280 C.3     1  UNL1        0.0038
     13 C          -2.1880    6.7730   12.4790 C.3     1  UNL1        0.0473
     14 O          -7.3300    1.0070   16.6290 O.2     1  UNL1       -0.1503
     15 O          -5.3640    1.0610   18.1010 O.2     1  UNL1       -0.1503
     16 S          -5.9130    0.9680   16.7730 S.O2    1  UNL1        0.0935
@<TRIPOS>BOND
     1     3     2   ar
     2     4     3   ar
     3     5     4   ar
     4     6     5   ar
     5     7     6   ar
     6     7     2   ar
     7    10     2    1
     8    10     1    1
     9    11     9    1
    10    12    11    1
    11    13    12    1
    12    13     1    1
    13    16    14    2
    14    16     8    1
    15    16     5    1
    16    16    15    2
