@<TRIPOS>MOLECULE
6SDI_0VV_A305
 15 16 0 0 0
SMALL
GASTEIGER

@<TRIPOS>ATOM
      1 C          -2.8490    6.9680   12.7070 C.ar    1  UNL1       -0.0000
      2 C          -1.6960    6.3140   13.0740 C.ar    1  UNL1        0.0028
      3 C          -1.7610    5.1260   13.7760 C.ar    1  UNL1        0.0345
      4 C          -5.5350    4.6610   14.0750 C.3     1  UNL1        0.2364
      5 C          -4.2520    2.8810   15.2790 C.cat   1  UNL1        0.4654
      6 C          -3.0070    4.5930   14.1240 C.ar    1  UNL1        0.1475
      7 C          -4.1800    5.2450   13.7400 C.ar    1  UNL1        0.0503
      8 C          -4.0840    6.4370   13.0330 C.ar    1  UNL1        0.0017
      9 N          -3.0790    3.4390   14.8910 N.pl3   1  UNL1       -0.0363
     10 N          -5.4560    3.4630   14.8920 N.pl3   1  UNL1       -0.0566
     11 N          -4.2190    1.7970   16.0520 N.2     1  UNL1        0.0778
     12 S          -5.4520    0.9450   16.6400 S.O2    1  UNL1        0.2281
     13 N          -5.2340   -0.5430   16.0610 N.3     1  UNL1        0.0732
     14 O          -5.3490    0.9550   18.0530 O.2     1  UNL1       -0.1174
     15 O          -6.6950    1.4350   16.0940 O.2     1  UNL1       -0.1174
@<TRIPOS>BOND
     1     2     1   ar
     2     3     2   ar
     3     6     3   ar
     4     7     4    1
     5     7     6   ar
     6     8     7   ar
     7     8     1   ar
     8     9     6    1
     9     9     5    1
    10    10     4    1
    11    10     5    1
    12    11     5    2
    13    12    11    1
    14    12    13    1
    15    14    12    2
    16    15    12    2
