@<TRIPOS>MOLECULE
6SDJ_J3K_A302
 5 4 0 0 0
SMALL
GASTEIGER

@<TRIPOS>ATOM
      1 N          -5.4600   -0.3220   16.0940 N.3     1  UNL1       -0.1286
      2 C          -6.2230    0.7140   16.8270 C.3     1  UNL1        0.1420
      3 C          -5.6120    2.0900   16.6480 C.3     1  UNL1        0.1710
      4 C          -6.3430    3.1280   17.4790 C.3     1  UNL1        0.0371
      5 O          -4.2470    1.9940   17.0570 O.3     1  UNL1       -0.2215
@<TRIPOS>BOND
     1     2     1    1
     2     3     2    1
     3     3     4    1
     4     5     3    1
