@<TRIPOS>MOLECULE
6SFU_LBQ_A308
 17 18 0 0 0
SMALL
GASTEIGER

@<TRIPOS>ATOM
      1 C          -2.5360    5.9090   13.4200 C.3     1  UNL1        0.1762
      2 C          -2.0710    7.3280   13.4520 C.ar    1  UNL1        0.1448
      3 C          -1.9420    8.2770   12.5140 C.ar    1  UNL1        0.0380
      4 N          -3.9270    5.7270   13.8010 N.pl3   1  UNL1       -0.2294
      5 C          -1.3820    9.4290   13.1600 C.ar    1  UNL1        0.0435
      6 C          -1.2160    9.1030   14.4340 C.ar    1  UNL1        0.1792
      7 C          -3.5130    3.5580   14.7960 C.ar    1  UNL1        0.0175
      8 C          -3.9740    2.4460   15.4790 C.ar    1  UNL1        0.0213
      9 N          -5.3420   -0.3610   16.0640 N.3     1  UNL1        0.0392
     10 C          -5.3070    2.3550   15.8430 C.ar    1  UNL1        0.1251
     11 O          -7.3310    0.9870   16.6540 O.2     1  UNL1       -0.1503
     12 C          -6.1880    3.3860   15.5210 C.ar    1  UNL1        0.0213
     13 C          -5.7280    4.4920   14.8340 C.ar    1  UNL1        0.0175
     14 C          -4.3910    4.5940   14.4670 C.ar    1  UNL1        0.0659
     15 O          -5.3310    1.0810   18.0810 O.2     1  UNL1       -0.1503
     16 O          -1.6360    7.8110   14.6590 O.2     1  UNL1       -0.4529
     17 S          -5.8960    0.9610   16.7710 S.O2    1  UNL1        0.0935
@<TRIPOS>BOND
     1     2     1    1
     2     3     2   ar
     3     4     1    1
     4     5     3   ar
     5     6     5   ar
     6     8     7   ar
     7    10     8   ar
     8    12    10   ar
     9    13    12   ar
    10    14    13   ar
    11    14     7   ar
    12    14     4    1
    13    16     6   ar
    14    16     2   ar
    15    17    11    2
    16    17    10    1
    17    17     9    1
    18    17    15    2
