@<TRIPOS>MOLECULE
6SFU_LBQ_A308
 17 18 0 0 0
SMALL
GASTEIGER

@<TRIPOS>ATOM
      1 C          -2.5350    5.9190   13.4380 C.3     1  UNL1        0.1762
      2 C          -2.0700    7.3380   13.4720 C.ar    1  UNL1        0.1448
      3 C          -1.9410    8.2890   12.5350 C.ar    1  UNL1        0.0380
      4 N          -3.9260    5.7370   13.8180 N.pl3   1  UNL1       -0.2294
      5 C          -1.3820    9.4400   13.1820 C.ar    1  UNL1        0.0435
      6 C          -1.2170    9.1130   14.4550 C.ar    1  UNL1        0.1792
      7 C          -3.5120    3.5670   14.8120 C.ar    1  UNL1        0.0175
      8 C          -3.9730    2.4550   15.4930 C.ar    1  UNL1        0.0213
      9 N          -5.3400   -0.3540   16.0760 N.3     1  UNL1        0.0392
     10 C          -5.3050    2.3620   15.8570 C.ar    1  UNL1        0.1251
     11 O          -7.3300    0.9930   16.6660 O.2     1  UNL1       -0.1503
     12 C          -6.1870    3.3930   15.5350 C.ar    1  UNL1        0.0213
     13 C          -5.7270    4.5000   14.8500 C.ar    1  UNL1        0.0175
     14 C          -4.3900    4.6030   14.4840 C.ar    1  UNL1        0.0659
     15 O          -5.3310    1.0870   18.0940 O.2     1  UNL1       -0.1503
     16 O          -1.6360    7.8210   14.6790 O.2     1  UNL1       -0.4529
     17 S          -5.8950    0.9680   16.7830 S.O2    1  UNL1        0.0935
@<TRIPOS>BOND
     1     2     1    1
     2     3     2   ar
     3     4     1    1
     4     5     3   ar
     5     6     5   ar
     6     8     7   ar
     7    10     8   ar
     8    12    10   ar
     9    13    12   ar
    10    14    13   ar
    11    14     7   ar
    12    14     4    1
    13    16     6   ar
    14    16     2   ar
    15    17    11    2
    16    17    10    1
    17    17     9    1
    18    17    15    2
