@<TRIPOS>MOLECULE
6YZK_Q3N_A302
 21 30 0 0 0
SMALL
GASTEIGER

@<TRIPOS>ATOM
      1  O11       -7.0770    1.3230   16.3680 O.2   302  Q3N302      0.0000
      2  S8        -5.6680    0.9850   16.6280 S.O2  302  Q3N302      0.0000
      3  O5        -5.3090    1.1670   18.0610 O.2   302  Q3N302      0.0000
      4  N4        -5.3500   -0.4600   16.0940 N.3   302  Q3N302      0.0000
      5  C6        -4.5570    2.0940   15.7300 C.3   302  Q3N302      0.0000
      6  C2        -5.2290    2.7460   14.5170 C.3   302  Q3N302      0.0000
      7  C1        -4.5900    4.0690   14.0650 C.3   302  Q3N302      0.0000
      8  C9        -5.4110    5.3000   14.5170 C.3   302  Q3N302      0.0000
      9  C10       -5.5130    6.5440   13.6180 C.3   302  Q3N302      0.0000
     10  C7        -4.2470    7.3810   13.4000 C.3   302  Q3N302      0.0000
     11  B5        -3.9350    7.9400   11.8940 B     302  Q3N302      0.0000
     12  B6        -2.1740    8.0030   11.7910 B     302  Q3N302      0.0000
     13  B9        -1.5320    7.3670   13.3180 B     302  Q3N302      0.0000
     14  B4        -2.9490    6.5930   12.5920 B     302  Q3N302      0.0000
     15  B1        -2.0710    8.4360   14.6720 B     302  Q3N302      0.0000
     16  B10       -1.6330    9.1100   13.0510 B     302  Q3N302      0.0000
     17  C3        -2.8600    7.0090   14.2990 C.3   302  Q3N302      0.0000
     18  B7        -3.1230    9.4920   12.1350 B     302  Q3N302      0.0000
     19  B3        -4.4960    9.0460   13.2050 B     302  Q3N302      0.0000
     20  B8        -3.0630    9.7470   13.9470 B     302  Q3N302      0.0000
     21  B2        -3.8110    8.4030   14.7900 B     302  Q3N302      0.0000
@<TRIPOS>BOND
     1    12    11    1
     2    12    14    1
     3    12    16    1
     4    12    13    1
     5    11    18    1
     6    11    19    1
     7    11    10    1
     8    18    16    1
     9    18    19    1
    10    14    13    1
    11    16    13    1
    12    16    20    1
    13    19    10    1
    14    19    20    1
    15    13    17    1
    16    10     9    1
    17    10    17    1
    18     9     8    1
    19    20    15    1
    20    20    21    1
    21     7     6    1
    22     7     8    1
    23    17    15    1
    24    17    21    1
    25     6     5    1
    26    15    21    1
    27     5     2    1
    28     4     2    1
    29     1     2    2
    30     2     3    2
