@<TRIPOS>MOLECULE
6YZQ_Q3Q_A302
 20 30 0 0 0
SMALL
GASTEIGER

@<TRIPOS>ATOM
      1  C1        -5.4160    3.3830   13.7370 C.3   302  Q3Q302      0.0000
      2  C6        -4.5210    2.2020   15.7730 C.3   302  Q3Q302      0.0000
      3  O9        -6.9950    1.3600   16.2820 O.2   302  Q3Q302      0.0000
      4  C3        -4.4230    7.3860   14.2210 C.3   302  Q3Q302      0.0000
      5  S8        -5.5770    0.9710   16.6160 S.O2  302  Q3Q302      0.0000
      6  O5        -5.2740    1.0770   18.0560 O.2   302  Q3Q302      0.0000
      7  N1        -5.1660   -0.4400   15.9800 N.3   302  Q3Q302      0.0000
      8  C2        -4.6690    2.1380   14.2610 C.3   302  Q3Q302      0.0000
      9  C4        -4.5960    4.6800   13.8760 C.3   302  Q3Q302      0.0000
     10  C7        -5.1900    6.0450   13.5200 C.3   302  Q3Q302      0.0000
     11  B15       -5.7000    6.2550   11.9770 B     302  Q3Q302      0.0000
     12  B16       -5.2910    7.9370   11.6170 B     302  Q3Q302      0.0000
     13  B19       -4.4550    8.5930   13.0400 B     302  Q3Q302      0.0000
     14  B14       -4.1060    6.9320   12.5440 B     302  Q3Q302      0.0000
     15  B10       -5.5850    8.5700   14.4470 B     302  Q3Q302      0.0000
     16  B11       -6.1680    8.9280   12.7730 B     302  Q3Q302      0.0000
     17  B17       -6.9670    7.4810   12.0810 B     302  Q3Q302      0.0000
     18  B13       -6.8840    6.2030   13.3340 B     302  Q3Q302      0.0000
     19  B18       -7.1360    7.8670   13.8590 B     302  Q3Q302      0.0000
     20  B12       -6.0230    6.9100   14.7980 B     302  Q3Q302      0.0000
@<TRIPOS>BOND
     1    12    11    1
     2    12    17    1
     3    12    16    1
     4    12    13    1
     5    11    17    1
     6    11    18    1
     7    11    10    1
     8    17    16    1
     9    17    18    1
    10    14    13    1
    11    14    10    1
    12    14     4    1
    13    16    13    1
    14    16    19    1
    15    13     4    1
    16    18    19    1
    17    18    20    1
    18    10     9    1
    19    10     4    1
    20     1     9    1
    21     1     8    1
    22    19    15    1
    23    19    20    1
    24     4    15    1
    25     8     2    1
    26    15    20    1
    27     2     5    1
    28     7     5    1
    29     3     5    2
    30     5     6    2
