@<TRIPOS>MOLECULE
6Z04_Q3W_A302
 19 29 0 0 0
SMALL
GASTEIGER

@<TRIPOS>ATOM
      1  C1        -4.8180    4.5580   15.3950 C.3   302  Q3W302      0.0000
      2  C6        -5.1420    2.2700   15.8790 C.3   302  Q3W302      0.0000
      3  O9        -5.3670    1.0240   18.1300 O.2   302  Q3W302      0.0000
      4  C3        -2.9940    6.4770   14.0340 C.3   302  Q3W302      0.0000
      5  S8        -5.8650    0.9140   16.7630 S.O2  302  Q3W302      0.0000
      6  O5        -7.3100    1.0210   16.6030 O.2   302  Q3W302      0.0000
      7  N1        -5.3380   -0.3700   16.0620 N.3   302  Q3W302      0.0000
      8  C2        -5.7530    3.5970   16.1470 C.3   302  Q3W302      0.0000
      9  C4        -5.5260    5.4590   14.4520 C.3   302  Q3W302      0.0000
     10  C7        -4.6550    6.5880   13.9460 C.3   302  Q3W302      0.0000
     11  B15       -5.2930    7.3700   12.6280 B     302  Q3W302      0.0000
     12  B16       -3.8790    7.8330   11.6650 B     302  Q3W302      0.0000
     13  B19       -2.4920    7.1690   12.5550 B     302  Q3W302      0.0000
     14  B10       -2.3340    8.0040   14.1570 B     302  Q3W302      0.0000
     15  B11       -2.9060    8.8890   12.6940 B     302  Q3W302      0.0000
     16  B17       -4.6900    9.0220   12.7520 B     302  Q3W302      0.0000
     17  B13       -5.2180    8.1520   14.2460 B     302  Q3W302      0.0000
     18  B18       -3.7400    9.1060   14.2790 B     302  Q3W302      0.0000
     19  B12       -3.7410    7.5760   15.1330 B     302  Q3W302      0.0000
@<TRIPOS>BOND
     1    12    13    1
     2    12    11    1
     3    12    15    1
     4    12    16    1
     5    13    15    1
     6    13     4    1
     7    11    16    1
     8    11    10    1
     9    11    17    1
    10    15    16    1
    11    15    14    1
    12    16    18    1
    13    10     4    1
    14    10    17    1
    15    10     9    1
    16     4    14    1
    17     4    19    1
    18    14    18    1
    19    14    19    1
    20    17    18    1
    21    17    19    1
    22    18    19    1
    23     9     1    1
    24     1     8    1
    25     2     8    1
    26     2     5    1
    27     7     5    1
    28     6     5    2
    29     5     3    2
