@<TRIPOS>MOLECULE
5IKV_FLF_B601
 29 30 0 0 0
SMALL
GASTEIGER

@<TRIPOS>ATOM
      1 C          26.5350    4.6340   34.2050 C.ar    1  UNL1        0.0842
      2 O          27.5800    4.4490   32.1280 O.co2   1  UNL1       -0.2405
      3 C          26.8580    5.1290   35.4340 C.ar    1  UNL1       -0.0458
      4 C          25.9380    5.1210   36.4200 C.ar    1  UNL1       -0.0609
      5 O          28.8810    4.9920   33.6560 O.co2   1  UNL1       -0.2405
      6 C          24.6970    4.6430   36.1990 C.ar    1  UNL1       -0.0600
      7 C          24.3710    4.1360   34.9920 C.ar    1  UNL1       -0.0397
      8 C          25.2930    4.1290   34.0070 C.ar    1  UNL1        0.0456
      9 C          27.7350    4.7250   33.3010 C.2     1  UNL1        0.3883
     10 N          25.0260    3.6480   32.7390 N.pl3   1  UNL1       -0.3138
     11 C          23.9090    2.9050   32.3440 C.ar    1  UNL1        0.0319
     12 C          23.4710    3.0400   31.0640 C.ar    1  UNL1       -0.0289
     13 C          22.4130    2.3280   30.5870 C.ar    1  UNL1        0.0566
     14 C          21.7900    1.4690   31.4330 C.ar    1  UNL1       -0.0500
     15 C          22.2230    1.3260   32.7070 C.ar    1  UNL1       -0.0595
     16 C          23.2820    2.0370   33.1630 C.ar    1  UNL1       -0.0405
     17 C          21.9430    2.4750   29.1820 C.3     1  UNL1        0.4175
     18 F          21.3090    1.4330   28.8200 F       1  UNL1       -0.1659
     19 F          21.0980    3.4100   29.1160 F       1  UNL1       -0.1659
     20 F          22.8430    2.7170   28.2870 F       1  UNL1       -0.1659
     21 H          27.7450    5.4830   35.6130 H       1  UNL1        0.0626
     22 H          26.1650    5.4820   37.2900 H       1  UNL1        0.0618
     23 H          24.0480    4.6480   36.9160 H       1  UNL1        0.0618
     24 H          23.4810    3.7920   34.8390 H       1  UNL1        0.0636
     25 H          25.6220    3.8560   32.0880 H       1  UNL1        0.1522
     26 H          23.9340    3.6500   30.4690 H       1  UNL1        0.0642
     27 H          21.0310    0.9540   31.1220 H       1  UNL1        0.0623
     28 H          21.7690    0.7090   33.3040 H       1  UNL1        0.0618
     29 H          23.5820    1.9280   34.0800 H       1  UNL1        0.0636
@<TRIPOS>BOND
     1     3     1   ar
     2     4     3   ar
     3     6     4   ar
     4     7     6   ar
     5     8     7   ar
     6     8     1   ar
     7     9     1    1
     8     9     2   ar
     9     9     5   ar
    10    10     8    1
    11    11    10    1
    12    12    11   ar
    13    13    12   ar
    14    14    13   ar
    15    15    14   ar
    16    16    11   ar
    17    16    15   ar
    18    17    13    1
    19    17    18    1
    20    19    17    1
    21    20    17    1
    22    21     3    1
    23    22     4    1
    24    23     6    1
    25    24     7    1
    26    25    10    1
    27    26    12    1
    28    27    14    1
    29    28    15    1
    30    29    16    1
