9GNO_A1INI_A301
     RDKit          3D

 29 31  0  0  0  0  0  0  0  0999 V2000
    1.8350  -22.1200  -22.2030 C   0  0  0  0  0  0  0  0  0  0  0  0
    1.8320  -21.6010  -20.7690 C   0  0  0  0  0  0  0  0  0  0  0  0
    3.1120  -22.9310  -22.5370 C   0  0  0  0  0  0  0  0  0  0  0  0
    4.4790  -27.4100  -25.8870 N   0  0  0  0  0  0  0  0  0  0  0  0
    7.9010  -23.0680  -23.8950 C   0  0  0  0  0  0  0  0  0  0  0  0
    7.7170  -22.0880  -22.9510 C   0  0  0  0  0  0  0  0  0  0  0  0
    9.8230  -22.2770  -23.4940 C   0  0  0  0  0  0  0  0  0  0  0  0
    9.3090  -20.4890  -21.7430 C   0  0  0  0  0  0  0  0  0  0  0  0
    9.0910  -20.8910  -20.3050 C   0  0  0  0  0  0  0  0  0  0  0  0
    8.5300  -19.2240  -22.0680 C   0  0  0  0  0  0  0  0  0  0  0  0
    5.6250  -25.3750  -25.7740 C   0  0  0  0  0  0  0  0  0  0  0  0
    5.7730  -25.9040  -27.1970 C   0  0  0  0  0  0  0  0  0  0  0  0
    4.6030  -26.8600  -27.2680 C   0  0  0  0  0  0  0  0  0  0  0  0
    5.2880  -26.6110  -24.9350 C   0  0  0  0  0  0  0  0  0  0  0  0
    3.2370  -28.7230  -24.2170 O   0  0  0  0  0  0  0  0  0  0  0  0
    3.0510  -28.0440  -25.4640 S   0  0  2  0  0  0  0  0  0  0  0  0
    2.5920  -28.7870  -26.5940 O   0  0  0  0  0  0  0  0  0  0  0  0
    1.9440  -26.7160  -25.1880 C   0  0  0  0  0  0  0  0  0  0  0  0
    6.8010  -24.7150  -25.2430 N   0  0  0  0  0  0  0  0  0  0  0  0
    6.7560  -23.7410  -24.3260 C   0  0  0  0  0  0  0  0  0  0  0  0
    5.5600  -23.4060  -23.8030 N   0  0  0  0  0  0  0  0  0  0  0  0
    9.2380  -23.1750  -24.2340 N   0  0  0  0  0  0  0  0  0  0  0  0
    8.9630  -21.5730  -22.6930 N   0  0  0  0  0  0  0  0  0  0  0  0
    6.5540  -21.7250  -22.4070 N   0  0  0  0  0  0  0  0  0  0  0  0
    5.5220  -22.4280  -22.8820 C   0  0  0  0  0  0  0  0  0  0  0  0
    4.2960  -22.1080  -22.3670 N   0  0  0  0  0  0  0  0  0  0  0  0
    3.2630  -24.1900  -21.7110 C   0  0  0  0  0  0  0  0  0  0  0  0
    2.2400  -25.1060  -22.0710 O   0  0  0  0  0  0  0  0  0  0  0  0
    1.5760  -20.9900  -23.1900 C   0  0  0  0  0  0  0  0  0  0  0  0
  1  2  1  0
  3  1  1  0
  6  5  2  0
  8  9  1  0
 10  8  1  0
 12 11  1  0
 13  4  1  0
 13 12  1  0
 14  4  1  0
 14 11  1  0
 16 15  2  0
 16  4  1  0
 17 16  2  0
 16 18  1  1
 11 19  1  0
 20 19  1  0
 20  5  1  0
 21 20  2  0
 22  7  2  0
 22  5  1  0
 23  7  1  0
 23  6  1  0
 23  8  1  0
 24  6  1  0
 25 21  1  0
 25 24  2  0
 26  3  1  0
 26 25  1  0
  3 27  1  0
 28 27  1  0
 29  1  1  0
M  END
>  <_TriposChargeType>  (1) 
GASTEIGER

$$$$
