1H00_FAP_A1300
     RDKit          3D

 30 32  0  0  0  0  0  0  0  0999 V2000
    6.5240  -25.3460  -26.3540 C   0  0  0  0  0  0  0  0  0  0  0  0
   10.2810  -21.9960  -23.1320 C   0  0  0  0  0  0  0  0  0  0  0  0
    8.5560  -23.3310  -23.8760 C   0  0  0  0  0  0  0  0  0  0  0  0
    7.6430  -22.6100  -23.0310 C   0  0  0  0  0  0  0  0  0  0  0  0
    8.2010  -21.5500  -22.2430 C   0  0  0  0  0  0  0  0  0  0  0  0
    6.8770  -25.1240  -24.9960 C   0  0  0  0  0  0  0  0  0  0  0  0
    5.9970  -25.5800  -23.9600 C   0  0  0  0  0  0  0  0  0  0  0  0
    4.7910  -26.2370  -24.2810 C   0  0  0  0  0  0  0  0  0  0  0  0
    4.4350  -26.4570  -25.6380 C   0  0  0  0  0  0  0  0  0  0  0  0
    9.5200  -21.2660  -22.3130 N   0  0  0  0  0  0  0  0  0  0  0  0
    9.8650  -23.0020  -23.9070 N   0  0  0  0  0  0  0  0  0  0  0  0
    7.4080  -20.7320  -21.3330 N   0  0  0  0  0  0  0  0  0  0  0  0
    8.1360  -24.4380  -24.7210 N   0  0  0  0  0  0  0  0  0  0  0  0
    5.3120  -26.0070  -26.6780 C   0  0  0  0  0  0  0  0  0  0  0  0
    3.2220  -27.1090  -25.8420 O   0  0  0  0  0  0  0  0  0  0  0  0
    1.9190  -26.4610  -25.8270 C   0  0  0  0  0  0  0  0  0  0  0  0
    3.6100  -20.9860  -19.2560 C   0  0  0  0  0  0  0  0  0  0  0  0
    4.1410  -19.7400  -19.6720 C   0  0  0  0  0  0  0  0  0  0  0  0
    5.3870  -19.6810  -20.3480 C   0  0  0  0  0  0  0  0  0  0  0  0
    6.1200  -20.8770  -20.6240 C   0  0  0  0  0  0  0  0  0  0  0  0
    4.3170  -22.1830  -19.5140 C   0  0  0  0  0  0  0  0  0  0  0  0
    5.5630  -22.1430  -20.1900 C   0  0  0  0  0  0  0  0  0  0  0  0
    5.8660  -18.4550  -20.7320 F   0  0  0  0  0  0  0  0  0  0  0  0
    6.1960  -23.3330  -20.4110 F   0  0  0  0  0  0  0  0  0  0  0  0
    0.7870  -27.4450  -26.1720 C   0  0  0  0  0  0  0  0  0  0  0  0
   -0.5830  -26.8560  -26.5890 C   0  0  0  0  0  0  0  0  0  0  0  0
   -1.7490  -27.8000  -26.6530 N   0  0  0  0  0  0  0  0  0  0  0  0
   -1.9030  -28.4590  -27.9780 C   0  0  0  0  0  0  0  0  0  0  0  0
   -3.0270  -27.1330  -26.2650 C   0  0  0  0  0  0  0  0  0  0  0  0
    0.6700  -28.4550  -25.2280 O   0  0  0  0  0  0  0  0  0  0  0  0
  4  3  1  0
  5  4  2  0
  6  1  2  0
  7  6  1  0
  8  7  2  0
  9  8  1  0
 10  2  2  0
 10  5  1  0
 11  3  2  0
 11  2  1  0
 12  5  1  0
 13  6  1  0
 13  3  1  0
 14  9  2  0
 14  1  1  0
 15  9  1  0
 16 15  1  0
 18 17  2  0
 19 18  1  0
 20 19  2  0
 20 12  1  0
 21 17  1  0
 22 21  2  0
 22 20  1  0
 23 19  1  0
 24 22  1  0
 25 16  1  0
 26 25  1  0
 27 26  1  0
 28 27  1  0
 29 27  1  0
 25 30  1  0
M  END
>  <_TriposChargeType>  (1) 
GASTEIGER

$$$$
