nicotine
     RDKit          3D

 27 28  0  0  0  0  0  0  0  0999 V2000
   -1.5564    1.7413    0.0006 C   0  0  0  0  0  0  0  0  0  0  0  0
   -1.6185    0.2490    0.0851 N   0  0  0  0  0  0  0  0  0  0  0  0
   -1.7020   -0.4410   -1.2467 C   0  0  0  0  0  0  0  0  0  0  0  0
   -1.3024   -1.8788   -0.9603 C   0  0  0  0  0  0  0  0  0  0  0  0
   -0.7006   -1.9021    0.4423 C   0  0  0  0  0  0  0  0  0  0  0  0
   -0.5049   -0.4421    0.8590 C   0  0  1  0  0  0  0  0  0  0  0  0
    0.8775    0.1173    0.6341 C   0  0  0  0  0  0  0  0  0  0  0  0
    1.6813   -0.1762   -0.4746 C   0  0  0  0  0  0  0  0  0  0  0  0
    2.9360    0.4180   -0.6060 C   0  0  0  0  0  0  0  0  0  0  0  0
    3.3539    1.2991    0.3738 C   0  0  0  0  0  0  0  0  0  0  0  0
    2.6083    1.6105    1.4527 N   0  0  0  0  0  0  0  0  0  0  0  0
    1.4067    1.0101    1.5670 C   0  0  0  0  0  0  0  0  0  0  0  0
   -1.4966    2.1356    1.0180 H   0  0  0  0  0  0  0  0  0  0  0  0
   -2.4782    2.0833   -0.4774 H   0  0  0  0  0  0  0  0  0  0  0  0
   -0.6890    2.0375   -0.5942 H   0  0  0  0  0  0  0  0  0  0  0  0
   -2.4889    0.0263    0.5860 H   0  0  0  0  0  0  0  0  0  0  0  0
   -2.7247   -0.3432   -1.6221 H   0  0  0  0  0  0  0  0  0  0  0  0
   -0.9997    0.0454   -1.9316 H   0  0  0  0  0  0  0  0  0  0  0  0
   -2.1719   -2.5437   -1.0118 H   0  0  0  0  0  0  0  0  0  0  0  0
   -0.5885   -2.2359   -1.7101 H   0  0  0  0  0  0  0  0  0  0  0  0
    0.2145   -2.5015    0.4908 H   0  0  0  0  0  0  0  0  0  0  0  0
   -1.4227   -2.3755    1.1207 H   0  0  0  0  0  0  0  0  0  0  0  0
   -0.7673   -0.3392    1.9198 H   0  0  0  0  0  0  0  0  0  0  0  0
    1.3672   -0.8706   -1.2484 H   0  0  0  0  0  0  0  0  0  0  0  0
    3.5787    0.1966   -1.4527 H   0  0  0  0  0  0  0  0  0  0  0  0
    4.3235    1.7878    0.3182 H   0  0  0  0  0  0  0  0  0  0  0  0
    0.8647    1.2919    2.4679 H   0  0  0  0  0  0  0  0  0  0  0  0
  1  2  1  0
  2  3  1  0
  3  4  1  0
  4  5  1  0
  5  6  1  0
  6  7  1  0
  7  8  2  0
  8  9  1  0
  9 10  2  0
 10 11  1  0
 11 12  2  0
  6  2  1  0
 12  7  1  0
  1 13  1  0
  1 14  1  0
  1 15  1  0
  2 16  1  0
  3 17  1  0
  3 18  1  0
  4 19  1  0
  4 20  1  0
  5 21  1  0
  5 22  1  0
  6 23  1  1
  8 24  1  0
  9 25  1  0
 10 26  1  0
 12 27  1  0
M  CHG  1   2   1
M  END
$$$$
