@<TRIPOS>MOLECULE
4MQT_IXO_A501
 14 14 0 0 0
SMALL
GASTEIGER

@<TRIPOS>ATOM
      1 C         131.7300  144.2380  101.9020 C.3     1  UNL1        0.1721
      2 N         132.9290  144.9810  102.2340 N.4     1  UNL1        0.3205
      3 C         133.0640  146.0830  101.3410 C.3     1  UNL1        0.1721
      4 C         134.1490  144.0980  102.1180 C.3     1  UNL1        0.1721
      5 C         132.8220  145.4890  103.5910 C.3     1  UNL1        0.1879
      6 C         134.0750  146.0460  104.2190 C.1     1  UNL1       -0.0269
      7 C         135.0930  146.5560  104.8230 C.1     1  UNL1       -0.0383
      8 C         136.3080  147.2490  105.4220 C.3     1  UNL1        0.2828
      9 O         137.2860  146.4370  106.0520 O.2     1  UNL1       -0.4464
     10 C         137.8040  145.3240  105.4340 C.2     1  UNL1        0.2412
     11 N         137.8830  145.1330  104.0360 N.2     1  UNL1       -0.0491
     12 O         138.4610  143.9220  103.7830 O.2     1  UNL1       -0.3747
     13 C         139.0500  143.4700  105.0020 C.3     1  UNL1        0.2484
     14 C         138.3630  144.1870  106.0610 C.3     1  UNL1        0.1383
@<TRIPOS>UNITY_ATOM_ATTR
2 1
charge 1
@<TRIPOS>BOND
     1     2     1    1
     2     3     2    1
     3     4     2    1
     4     5     2    1
     5     6     5    1
     6     7     6    3
     7     8     7    1
     8     9     8    1
     9    10     9    1
    10    11    10    2
    11    12    11    1
    12    13    12    1
    13    14    13    1
    14    14    10    1
