@<TRIPOS>MOLECULE
5YC8_3C0_A501
 23 26 0 0 0
SMALL
GASTEIGER

@<TRIPOS>ATOM
      1 C         139.8910  146.2040  102.5730 C.3     1  UNL1        0.1975
      2 C         135.4060  144.7010  101.3620 C.3     1  UNL1        0.1804
      3 C         133.0490  145.6340  101.8200 C.3     1  UNL1        0.0925
      4 C         134.2050  145.5650  103.9310 C.3     1  UNL1        0.1971
      5 C         131.3960  144.5980  103.3420 C.3     1  UNL1        0.1704
      6 C         132.2630  143.3270  101.6200 C.3     1  UNL1        0.1704
      7 C         133.8390  144.1800  103.3370 C.3     1  UNL1        0.0925
      8 N         132.6210  144.4220  102.5370 N.4     1  UNL1        0.3017
      9 C         134.1200  145.3010  100.7560 C.3     1  UNL1        0.1014
     10 C         133.6660  146.5430  102.9190 C.3     1  UNL1        0.1971
     11 O         133.1660  146.5260  104.2940 O.3     1  UNL1       -0.3416
     12 C         135.0140  143.6930  102.4680 C.3     1  UNL1        0.1014
     13 O         136.3040  145.7520  101.8050 O.3     1  UNL1       -0.4516
     14 C         137.5650  145.3630  102.1300 C.2     1  UNL1        0.3231
     15 O         138.0360  144.2450  101.9200 O.2     1  UNL1       -0.2497
     16 C         138.3990  146.4710  102.7780 C.3     1  UNL1        0.1541
     17 O         140.1850  146.2280  101.1730 O.3     1  UNL1       -0.2194
     18 C         138.0980  146.5490  104.1350 C.ar    1  UNL1       -0.0094
     19 C         137.3320  147.6080  104.6110 C.ar    1  UNL1       -0.0037
     20 C         137.0240  147.6930  105.9620 C.ar    1  UNL1       -0.0003
     21 C         137.4810  146.7190  106.8420 C.ar    1  UNL1       -0.0000
     22 C         138.2460  145.6590  106.3680 C.ar    1  UNL1       -0.0003
     23 C         138.5540  145.5730  105.0140 C.ar    1  UNL1       -0.0037
@<TRIPOS>UNITY_ATOM_ATTR
8 1
charge 1
@<TRIPOS>BOND
     1     7     4    1
     2     8     7    1
     3     8     6    1
     4     8     5    1
     5     8     3    1
     6     3     9    1
     7     9     2    1
     8    10     3    1
     9    10     4    1
    10    10    11    1
    11     4    11    1
    12     7    12    1
    13    12     2    1
    14     2    13    1
    15    14    13    1
    16    15    14    2
    17    16    14    1
    18    16     1    1
    19    17     1    1
    20    18    16    1
    21    19    18   ar
    22    20    19   ar
    23    21    20   ar
    24    22    21   ar
    25    23    22   ar
    26    23    18   ar
