@<TRIPOS>MOLECULE
5ZK3_QNB_A501
 25 28 0 0 0
SMALL
GASTEIGER

@<TRIPOS>ATOM
      1 C         138.3250  145.7110  102.7610 C.3     1  UNL1        0.2521
      2 C         138.0370  146.0650  104.2260 C.ar    1  UNL1        0.0192
      3 C         137.1380  147.0740  104.5530 C.ar    1  UNL1       -0.0011
      4 C         136.8850  147.3910  105.8780 C.ar    1  UNL1       -0.0002
      5 C         137.5220  146.7080  106.8890 C.ar    1  UNL1       -0.0000
      6 C         138.4160  145.7070  106.5800 C.ar    1  UNL1       -0.0002
      7 C         138.6730  145.3860  105.2570 C.ar    1  UNL1       -0.0011
      8 C         138.4160  146.9730  101.8960 C.ar    1  UNL1        0.0192
      9 C         139.3660  147.9510  102.1670 C.ar    1  UNL1       -0.0011
     10 C         139.4490  149.0920  101.3890 C.ar    1  UNL1       -0.0002
     11 C         138.5880  149.2740  100.3300 C.ar    1  UNL1       -0.0000
     12 C         137.6410  148.3140  100.0490 C.ar    1  UNL1       -0.0002
     13 C         137.5550  147.1710  100.8240 C.ar    1  UNL1       -0.0011
     14 C         137.2480  144.7450  102.2260 C.2     1  UNL1        0.3527
     15 O         139.5890  145.0440  102.7020 O.3     1  UNL1       -0.2051
     16 O         137.5080  143.7600  101.5930 O.2     1  UNL1       -0.2466
     17 O         136.0060  145.1150  102.5660 O.3     1  UNL1       -0.4487
     18 C         134.9180  144.1990  102.2450 C.3     1  UNL1        0.1848
     19 C         133.8440  144.3310  103.3040 C.3     1  UNL1        0.1162
     20 N         132.6420  144.9780  102.7750 N.3     1  UNL1       -0.2697
     21 C         132.9870  146.2860  102.2110 C.3     1  UNL1        0.0723
     22 C         133.9680  146.1390  101.0530 C.3     1  UNL1        0.0210
     23 C         134.3400  144.6660  100.9170 C.3     1  UNL1        0.0444
     24 C         133.0790  143.8540  100.6300 C.3     1  UNL1        0.0210
     25 C         132.0550  144.1450  101.7210 C.3     1  UNL1        0.0723
@<TRIPOS>BOND
     1     2     1    1
     2     3     2   ar
     3     4     3   ar
     4     5     4   ar
     5     6     5   ar
     6     7     6   ar
     7     7     2   ar
     8     8     1    1
     9     9     8   ar
    10    10     9   ar
    11    11    10   ar
    12    12    11   ar
    13    13     8   ar
    14    13    12   ar
    15    14     1    1
    16     1    15    1
    17    16    14    2
    18    17    14    1
    19    18    17    1
    20    19    18    1
    21    20    19    1
    22    21    20    1
    23    22    21    1
    24    23    22    1
    25    23    18    1
    26    24    23    1
    27    25    24    1
    28    25    20    1
