@<TRIPOS>MOLECULE
5ZK8_3C0_A501
 23 26 0 0 0
SMALL
GASTEIGER

@<TRIPOS>ATOM
      1 C         139.9280  146.1460  102.5750 C.3     1  UNL1        0.1975
      2 C         135.3620  144.9910  101.2980 C.3     1  UNL1        0.1804
      3 C         133.0170  145.7650  102.0490 C.3     1  UNL1        0.0925
      4 C         134.3170  145.3890  104.0320 C.3     1  UNL1        0.1971
      5 C         131.4950  144.4300  103.4830 C.3     1  UNL1        0.1704
      6 C         132.2740  143.4940  101.5140 C.3     1  UNL1        0.1704
      7 C         133.9360  144.1060  103.2460 C.3     1  UNL1        0.0925
      8 N         132.6640  144.4370  102.5780 N.4     1  UNL1        0.3017
      9 C         134.0290  145.6540  100.8830 C.3     1  UNL1        0.1014
     10 C         133.6850  146.5060  103.2410 C.3     1  UNL1        0.1971
     11 O         133.2860  146.2380  104.6260 O.3     1  UNL1       -0.3416
     12 C         135.0540  143.7990  102.2330 C.3     1  UNL1        0.1014
     13 O         136.2840  145.9660  101.8630 O.3     1  UNL1       -0.4516
     14 C         137.5620  145.5340  102.0420 C.2     1  UNL1        0.3231
     15 O         138.0040  144.4490  101.6670 O.2     1  UNL1       -0.2497
     16 C         138.4630  146.5490  102.7480 C.3     1  UNL1        0.1541
     17 O         140.2080  145.9860  101.1820 O.3     1  UNL1       -0.2194
     18 C         138.1330  146.6120  104.0980 C.ar    1  UNL1       -0.0094
     19 C         137.4240  147.7060  104.5820 C.ar    1  UNL1       -0.0037
     20 C         137.0880  147.7780  105.9290 C.ar    1  UNL1       -0.0003
     21 C         137.4610  146.7540  106.7930 C.ar    1  UNL1       -0.0000
     22 C         138.1680  145.6590  106.3090 C.ar    1  UNL1       -0.0003
     23 C         138.5050  145.5870  104.9610 C.ar    1  UNL1       -0.0037
@<TRIPOS>UNITY_ATOM_ATTR
8 1
charge 1
@<TRIPOS>BOND
     1     7     4    1
     2     8     7    1
     3     8     6    1
     4     8     5    1
     5     8     3    1
     6     3     9    1
     7     9     2    1
     8    10     3    1
     9    10     4    1
    10    10    11    1
    11     4    11    1
    12     7    12    1
    13    12     2    1
    14     2    13    1
    15    14    13    1
    16    15    14    2
    17    16    14    1
    18    16     1    1
    19    17     1    1
    20    18    16    1
    21    19    18   ar
    22    20    19   ar
    23    21    20   ar
    24    22    21   ar
    25    23    22   ar
    26    23    18   ar
