@<TRIPOS>MOLECULE
5ZKC_3C0_A501
 23 26 0 0 0
SMALL
GASTEIGER

@<TRIPOS>ATOM
      1 C         139.8360  146.2030  102.6100 C.3     1  UNL1        0.1975
      2 C         135.3700  144.6480  101.4030 C.3     1  UNL1        0.1804
      3 C         133.0030  145.6080  101.7460 C.3     1  UNL1        0.0925
      4 C         134.0960  145.6280  103.8880 C.3     1  UNL1        0.1971
      5 C         131.2970  144.6460  103.2510 C.3     1  UNL1        0.1704
      6 C         132.2190  143.2970  101.6170 C.3     1  UNL1        0.1704
      7 C         133.7400  144.2200  103.3470 C.3     1  UNL1        0.0925
      8 N         132.5490  144.4300  102.4990 N.4     1  UNL1        0.3017
      9 C         134.1080  145.2260  100.7330 C.3     1  UNL1        0.1014
     10 C         133.5850  146.5630  102.8240 C.3     1  UNL1        0.1971
     11 O         133.0480  146.6000  104.1880 O.3     1  UNL1       -0.3416
     12 C         134.9430  143.6910  102.5400 C.3     1  UNL1        0.1014
     13 O         136.2570  145.7170  101.8260 O.3     1  UNL1       -0.4516
     14 C         137.5170  145.3410  102.1650 C.2     1  UNL1        0.3231
     15 O         137.9970  144.2250  101.9690 O.2     1  UNL1       -0.2497
     16 C         138.3410  146.4660  102.8050 C.3     1  UNL1        0.1541
     17 O         140.1300  146.1920  101.2080 O.3     1  UNL1       -0.2194
     18 C         138.0310  146.5690  104.1600 C.ar    1  UNL1       -0.0094
     19 C         137.2720  147.6440  104.6080 C.ar    1  UNL1       -0.0037
     20 C         136.9530  147.7580  105.9550 C.ar    1  UNL1       -0.0003
     21 C         137.3900  146.7960  106.8570 C.ar    1  UNL1       -0.0000
     22 C         138.1500  145.7190  106.4100 C.ar    1  UNL1       -0.0003
     23 C         138.4680  145.6050  105.0610 C.ar    1  UNL1       -0.0037
@<TRIPOS>UNITY_ATOM_ATTR
8 1
charge 1
@<TRIPOS>BOND
     1     7     4    1
     2     8     7    1
     3     8     6    1
     4     8     5    1
     5     8     3    1
     6     3     9    1
     7     9     2    1
     8    10     3    1
     9    10     4    1
    10    10    11    1
    11     4    11    1
    12     7    12    1
    13    12     2    1
    14     2    13    1
    15    14    13    1
    16    15    14    2
    17    16    14    1
    18    16     1    1
    19    17     1    1
    20    18    16    1
    21    19    18   ar
    22    20    19   ar
    23    21    20   ar
    24    22    21   ar
    25    23    22   ar
    26    23    18   ar
