@<TRIPOS>MOLECULE
6OIK_IXO_R501
 14 14 0 0 0
SMALL
GASTEIGER

@<TRIPOS>ATOM
      1 C         131.8630  143.1520  101.3960 C.3     1  UNL1        0.1721
      2 N         132.9110  143.3310  102.3700 N.4     1  UNL1        0.3205
      3 C         134.1810  143.2610  101.6760 C.3     1  UNL1        0.1721
      4 C         132.8150  142.2730  103.3530 C.3     1  UNL1        0.1721
      5 C         132.6900  144.6060  103.0300 C.3     1  UNL1        0.1879
      6 C         134.0000  145.2570  103.4940 C.1     1  UNL1       -0.0269
      7 C         134.9660  145.8260  103.8830 C.1     1  UNL1       -0.0383
      8 C         136.1810  146.5550  104.4270 C.3     1  UNL1        0.2828
      9 O         136.6110  145.8900  105.5650 O.2     1  UNL1       -0.4464
     10 C         137.9900  145.6720  105.5950 C.2     1  UNL1        0.2412
     11 N         138.7500  145.5780  104.3370 N.2     1  UNL1       -0.0491
     12 O         139.9110  144.9130  104.5110 O.2     1  UNL1       -0.3747
     13 C         139.7130  144.1310  105.8270 C.3     1  UNL1        0.2484
     14 C         138.4930  144.8590  106.5200 C.3     1  UNL1        0.1383
@<TRIPOS>UNITY_ATOM_ATTR
2 1
charge 1
@<TRIPOS>BOND
     1     2     1    1
     2     3     2    1
     3     4     2    1
     4     5     2    1
     5     6     5    1
     6     7     6    3
     7     8     7    1
     8     9     8    1
     9    10     9    1
    10    11    10    2
    11    12    11    1
    12    13    12    1
    13    14    13    1
    14    14    10    1
