@<TRIPOS>MOLECULE
7T8X_ACH_A501
 10 9 0 0 0
SMALL
GASTEIGER

@<TRIPOS>ATOM
      1 N         132.8630  144.5280  102.4650 N.4     1  UNL1        0.3135
      2 C         133.9000  144.6510  103.4290 C.3     1  UNL1        0.1575
      3 C         135.1240  145.3140  102.8350 C.3     1  UNL1        0.2688
      4 O         136.1830  144.9950  103.6730 O.3     1  UNL1       -0.4420
      5 C         136.8580  146.0740  104.1780 C.2     1  UNL1        0.3178
      6 O         137.6150  146.6090  103.4740 O.2     1  UNL1       -0.2501
      7 C         136.6330  146.5200  105.6110 C.3     1  UNL1        0.1212
      8 C         131.8930  143.6660  103.0400 C.3     1  UNL1        0.1711
      9 C         132.2250  145.7550  102.1740 C.3     1  UNL1        0.1711
     10 C         133.3830  144.0350  101.2420 C.3     1  UNL1        0.1711
@<TRIPOS>UNITY_ATOM_ATTR
1 1
charge 1
@<TRIPOS>BOND
     1     2     1    1
     2     3     2    1
     3     4     3    1
     4     5     4    1
     5     6     5    2
     6     7     5    1
     7     1     8    1
     8     9     1    1
     9    10     1    1
