@<TRIPOS>MOLECULE
7T90_ACH_A501
 10 9 0 0 0
SMALL
GASTEIGER

@<TRIPOS>ATOM
      1 N         132.3130  144.5690  102.1350 N.4     1  UNL1        0.3135
      2 C         133.7310  144.4890  102.1250 C.3     1  UNL1        0.1575
      3 C         134.1670  144.8660  103.5220 C.3     1  UNL1        0.2688
      4 O         135.5500  144.8070  103.4880 O.3     1  UNL1       -0.4420
      5 C         136.1690  145.8210  104.1930 C.2     1  UNL1        0.3178
      6 O         137.0800  146.3840  103.7030 O.2     1  UNL1       -0.2501
      7 C         135.6730  146.1840  105.5820 C.3     1  UNL1        0.1212
      8 C         131.9000  145.8600  101.6700 C.3     1  UNL1        0.1711
      9 C         131.7880  143.5610  101.2730 C.3     1  UNL1        0.1711
     10 C         131.8750  144.3430  103.4860 C.3     1  UNL1        0.1711
@<TRIPOS>UNITY_ATOM_ATTR
1 1
charge 1
@<TRIPOS>BOND
     1     2     1    1
     2     3     2    1
     3     4     3    1
     4     5     4    1
     5     6     5    2
     6     7     5    1
     7     1     8    1
     8     9     1    1
     9    10     1    1
