@<TRIPOS>MOLECULE
7T96_ACH_A501
 10 9 0 0 0
SMALL
GASTEIGER

@<TRIPOS>ATOM
      1 N         132.2150  144.0110  102.8030 N.4     1  UNL1        0.3135
      2 C         133.3430  144.7950  102.4140 C.3     1  UNL1        0.1575
      3 C         134.2650  144.9760  103.5970 C.3     1  UNL1        0.2688
      4 O         135.5110  145.2690  103.0570 O.3     1  UNL1       -0.4420
      5 C         136.3130  146.0550  103.8810 C.2     1  UNL1        0.3178
      6 O         137.2800  146.5680  103.4360 O.2     1  UNL1       -0.2501
      7 C         135.9470  146.2510  105.3470 C.3     1  UNL1        0.1212
      8 C         131.2750  144.8510  103.5000 C.3     1  UNL1        0.1711
      9 C         131.6230  143.4230  101.6270 C.3     1  UNL1        0.1711
     10 C         132.6750  142.9390  103.6510 C.3     1  UNL1        0.1711
@<TRIPOS>UNITY_ATOM_ATTR
1 1
charge 1
@<TRIPOS>BOND
     1     2     1    1
     2     3     2    1
     3     4     3    1
     4     5     4    1
     5     6     5    2
     6     7     5    1
     7     1     8    1
     8     9     1    1
     9    10     1    1
