@<TRIPOS>MOLECULE
8UHB_WV8_A401
 33 34 0 0 0
SMALL
GASTEIGER

@<TRIPOS>ATOM
      1  C5       -33.3610   11.2510    8.5750 C.3   401  WV8401      0.0904
      2  C6       -33.6180   11.8060    9.9770 C.3   401  WV8401      0.1148
      3  C15      -28.6090   12.2250    6.0510 C.ar  401  WV8401     -0.0615
      4  C14      -27.5810   11.3090    6.1020 C.ar  401  WV8401     -0.0617
      5  C12      -29.1390    9.6140    6.7610 C.ar  401  WV8401     -0.0583
      6  C11      -30.1850   10.5270    6.7140 C.ar  401  WV8401     -0.0442
      7  C8       -33.9520   13.3900    8.4510 C.2   401  WV8401      0.2951
      8  C3       -31.6000   10.1130    7.0680 C.3   401  WV8401     -0.0141
      9  C16      -29.9030   11.8390    6.3540 C.ar  401  WV8401     -0.0583
     10  C1       -33.2660    8.1560    6.9340 C.3   401  WV8401     -0.0647
     11  C13      -27.8460   10.0050    6.4580 C.ar  401  WV8401     -0.0615
     12  C2       -31.8210    8.6000    6.8730 C.3   401  WV8401     -0.0490
     13  C4       -32.0140   10.5660    8.4740 C.3   401  WV8401     -0.0204
     14  N10      -33.4290   12.4590    7.7260 N.2   401  WV8401     -0.2289
     15  N9       -34.3030   14.6080    8.0630 N.pl3 401  WV8401     -0.2169
     16  O7       -34.1820   13.1230    9.7480 O.2   401  WV8401     -0.4626
     17  H5       -34.0870   10.6510    8.3080 H     401  WV8401      0.0580
     18  H6A      -32.8010   11.9120   10.5050 H     401  WV8401      0.0719
     19  H6B      -34.2470   11.2530   10.4810 H     401  WV8401      0.0719
     20  H15      -28.4240   13.1540    5.7990 H     401  WV8401      0.0618
     21  H14      -26.6660   11.5850    5.8880 H     401  WV8401      0.0618
     22  H12      -29.2940    8.6800    7.0110 H     401  WV8401      0.0620
     23  H3       -32.1970   10.5590    6.4360 H     401  WV8401      0.0349
     24  H16      -30.6180   12.5060    6.3100 H     401  WV8401      0.0620
     25  H1A      -33.3050    7.1800    6.9990 H     401  WV8401      0.0230
     26  H1B      -33.7550    8.4040    6.1240 H     401  WV8401      0.0230
     27  H1C      -33.7320    8.5220    7.7130 H     401  WV8401      0.0230
     28  H13      -27.1180    9.3500    6.4960 H     401  WV8401      0.0618
     29  H2A      -31.4590    8.3350    6.0030 H     401  WV8401      0.0268
     30  H2B      -31.3150    8.1000    7.5470 H     401  WV8401      0.0268
     31  H4A      -31.3440   11.1700    8.8530 H     401  WV8401      0.0293
     32  H4B      -32.0280    9.7830    9.0600 H     401  WV8401      0.0293
     33  H9B      -34.6560   15.1740    8.6410 H     401  WV8401      0.1746
@<TRIPOS>BOND
     1    20     3    1
     2    21     4    1
     3    29    12    1
     4     3     4   ar
     5     3     9   ar
     6     4    11   ar
     7    26    10    1
     8    24     9    1
     9     9     6   ar
    10    23     8    1
    11    11    28    1
    12    11     5   ar
    13     6     5   ar
    14     6     8    1
    15     5    22    1
    16    12    10    1
    17    12     8    1
    18    12    30    1
    19    10    25    1
    20    10    27    1
    21     8    13    1
    22    14     7    2
    23    14     1    1
    24    15     7    1
    25    15    33    1
    26    17     1    1
    27     7    16    1
    28    13     1    1
    29    13    31    1
    30    13    32    1
    31     1     2    1
    32    16     2    1
    33     2    19    1
    34     2    18    1
