@<TRIPOS>MOLECULE
9CHU_E5E_A501
 12 12 0 0 0
SMALL
GASTEIGER

@<TRIPOS>ATOM
      1 O         -26.8250    8.8700    6.0790 O.3     1  UNL1       -0.2832
      2 C         -27.8110    9.8550    6.3950 C.ar    1  UNL1        0.2340
      3 C         -28.9810    9.4650    6.9870 C.ar    1  UNL1        0.0438
      4 C         -27.5870   11.1950    6.1110 C.ar    1  UNL1        0.2342
      5 O         -26.3710   11.6070    5.4930 O.3     1  UNL1       -0.2831
      6 C         -28.5620   12.1690    6.4250 C.ar    1  UNL1        0.0452
      7 C         -29.7220   11.7860    7.0160 C.ar    1  UNL1        0.0019
      8 C         -29.9550   10.4020    7.3120 C.ar    1  UNL1        0.0176
      9 C         -31.2370    9.9360    7.9500 C.3     1  UNL1        0.2480
     10 O         -32.2430   10.8560    7.6120 O.3     1  UNL1       -0.2112
     11 C         -31.5740    8.5360    7.2900 C.3     1  UNL1        0.3527
     12 N         -32.9890    8.1350    7.3850 N.4     1  UNL1        0.6001
@<TRIPOS>UNITY_ATOM_ATTR
12 1
charge 1
@<TRIPOS>BOND
     1     2     1    1
     2     3     2   ar
     3     4     2   ar
     4     5     4    1
     5     6     4   ar
     6     7     6   ar
     7     8     3   ar
     8     8     7   ar
     9     9     8    1
    10     9    10    1
    11    11     9    1
    12    12    11    1
