@<TRIPOS>MOLECULE
4MG8_27J_A601
 23 24 0 0 0
SMALL
GASTEIGER

@<TRIPOS>ATOM
      1 C          25.0220  -11.6580   10.9570 C.3     1  UNL1        0.0330
      2 C          23.8120  -12.0620   10.1640 C.3     1  UNL1        0.0063
      3 C          24.0000  -13.3800    9.5140 C.3     1  UNL1        0.0437
      4 C          22.9210  -13.6320    8.4770 C.3     1  UNL1        0.1693
      5 C          22.8430  -15.1290    8.1600 C.3     1  UNL1        0.0473
      6 O          23.1570  -12.8400    7.3230 O.3     1  UNL1       -0.4491
      7 C          22.1110  -12.4690    6.6280 C.2     1  UNL1        0.3439
      8 O          20.9820  -12.7050    7.0100 O.2     1  UNL1       -0.2448
      9 C          22.3480  -11.8670    5.3450 C.ar    1  UNL1        0.1107
     10 C          21.2710  -11.5470    4.5540 C.ar    1  UNL1        0.2048
     11 O          20.0460  -11.7600    5.0420 O.3     1  UNL1       -0.2863
     12 C          21.3820  -10.9950    3.3100 C.ar    1  UNL1        0.0842
     13 C          22.6060  -10.7690    2.7920 C.ar    1  UNL1        0.1986
     14 O          22.6950  -10.2250    1.5780 O.3     1  UNL1       -0.2865
     15 C          23.7030  -11.0910    3.5260 C.ar    1  UNL1        0.0382
     16 C          23.6300  -11.6200    4.7860 C.ar    1  UNL1       -0.0096
     17 C          24.8270  -11.8970    5.3950 C.3     1  UNL1        0.0268
     18 C          25.2800  -10.7470    6.2210 C.3     1  UNL1        0.0047
     19 C          26.4680  -11.0520    7.0250 C.3     1  UNL1        0.0004
     20 C          26.8210   -9.9440    8.0120 C.3     1  UNL1        0.0026
     21 C          26.0330  -10.0070    9.3610 C.3     1  UNL1        0.0329
     22 C          26.2410  -11.2850   10.1180 C.3     1  UNL1        0.1520
     23 O          27.3390  -11.0950   10.9310 O.3     1  UNL1       -0.2232
@<TRIPOS>BOND
     1     2     1    1
     2     3     2    1
     3     4     3    1
     4     4     5    1
     5     6     4    1
     6     7     6    1
     7     8     7    2
     8     9     7    1
     9    10     9   ar
    10    11    10    1
    11    12    10   ar
    12    13    12   ar
    13    14    13    1
    14    15    13   ar
    15    16    15   ar
    16    16     9   ar
    17    17    16    1
    18    18    17    1
    19    19    18    1
    20    20    19    1
    21    21    20    1
    22    22     1    1
    23    22    21    1
    24    22    23    1
