@<TRIPOS>MOLECULE
5DXG_EST_A1000
 20 23 0 0 0
SMALL
GASTEIGER

@<TRIPOS>ATOM
      1 C          23.8540  -11.2590    4.0050 C.ar    1  UNL1       -0.0013
      2 C          23.0450  -11.0210    2.8980 C.ar    1  UNL1        0.0417
      3 C          21.6960  -11.2150    3.0300 C.ar    1  UNL1        0.1954
      4 O          20.9230  -10.9840    2.0060 O.3     1  UNL1       -0.2866
      5 C          21.1580  -11.6350    4.2330 C.ar    1  UNL1        0.0375
      6 C          21.9060  -11.8640    5.3390 C.ar    1  UNL1       -0.0230
      7 C          21.2870  -12.3200    6.6310 C.3     1  UNL1        0.0261
      8 C          22.2700  -12.8360    7.6620 C.3     1  UNL1        0.0050
      9 C          23.5420  -11.9960    7.7580 C.3     1  UNL1        0.0044
     10 C          24.2630  -11.9390    6.4010 C.3     1  UNL1        0.0220
     11 C          23.3660  -11.6740    5.2300 C.ar    1  UNL1       -0.0263
     12 C          25.4360  -10.9730    6.5760 C.3     1  UNL1        0.0044
     13 C          26.4010  -11.3760    7.6970 C.3     1  UNL1        0.0028
     14 C          25.6850  -11.5720    9.0190 C.3     1  UNL1        0.0282
     15 C          24.5170  -12.4940    8.8050 C.3     1  UNL1        0.0028
     16 C          23.9960  -12.7310   10.1930 C.3     1  UNL1        0.0027
     17 C          25.2340  -12.7500   11.0560 C.3     1  UNL1        0.0329
     18 C          26.3790  -12.3390   10.1550 C.3     1  UNL1        0.1519
     19 O          27.3350  -11.6000   10.8310 O.3     1  UNL1       -0.2232
     20 C          25.2370  -10.2350    9.5700 C.3     1  UNL1        0.0025
@<TRIPOS>BOND
     1     2     1   ar
     2     3     2   ar
     3     4     3    1
     4     5     3   ar
     5     6     5   ar
     6     7     6    1
     7     8     7    1
     8     9     8    1
     9    10     9    1
    10    11     6   ar
    11    11     1   ar
    12    11    10    1
    13    10    12    1
    14    13    12    1
    15    14    13    1
    16    15    14    1
    17    15     9    1
    18    15    16    1
    19    17    16    1
    20    18    14    1
    21    18    17    1
    22    18    19    1
    23    14    20    1
