@<TRIPOS>MOLECULE
5WGD_EST_A601
 20 23 0 0 0
SMALL
GASTEIGER

@<TRIPOS>ATOM
      1 C          23.8530  -11.2170    4.0360 C.ar    1  UNL1       -0.0013
      2 C          23.0410  -11.0060    2.9580 C.ar    1  UNL1        0.0417
      3 C          21.6760  -11.1780    3.0080 C.ar    1  UNL1        0.1954
      4 O          20.9410  -10.9330    1.9260 O.3     1  UNL1       -0.2866
      5 C          21.0880  -11.5960    4.1660 C.ar    1  UNL1        0.0375
      6 C          21.8520  -11.8180    5.2920 C.ar    1  UNL1       -0.0230
      7 C          21.2170  -12.2690    6.5860 C.3     1  UNL1        0.0261
      8 C          22.2180  -12.8030    7.5770 C.3     1  UNL1        0.0050
      9 C          23.4540  -11.9460    7.7210 C.3     1  UNL1        0.0044
     10 C          24.2000  -11.8840    6.4070 C.3     1  UNL1        0.0220
     11 C          23.3220  -11.6280    5.2250 C.ar    1  UNL1       -0.0263
     12 C          25.3580  -10.9100    6.5560 C.3     1  UNL1        0.0044
     13 C          26.3310  -11.4690    7.5770 C.3     1  UNL1        0.0028
     14 C          25.6670  -11.6560    8.9430 C.3     1  UNL1        0.0282
     15 C          24.4460  -12.5090    8.7360 C.3     1  UNL1        0.0028
     16 C          24.0040  -12.8500   10.1450 C.3     1  UNL1        0.0027
     17 C          25.2570  -12.8890   10.9640 C.3     1  UNL1        0.0329
     18 C          26.3870  -12.4020   10.0710 C.3     1  UNL1        0.1519
     19 O          27.3510  -11.6790   10.7770 O.3     1  UNL1       -0.2232
     20 C          25.2440  -10.3290    9.4630 C.3     1  UNL1        0.0025
@<TRIPOS>BOND
     1     2     1   ar
     2     3     2   ar
     3     4     3    1
     4     5     3   ar
     5     6     5   ar
     6     7     6    1
     7     8     7    1
     8     9     8    1
     9    10     9    1
    10    11     6   ar
    11    11     1   ar
    12    11    10    1
    13    10    12    1
    14    13    12    1
    15    14    13    1
    16    15    14    1
    17    15     9    1
    18    15    16    1
    19    17    16    1
    20    18    14    1
    21    18    17    1
    22    18    19    1
    23    14    20    1
