@<TRIPOS>MOLECULE
6CBZ_EST_A601
 20 23 0 0 0
SMALL
GASTEIGER

@<TRIPOS>ATOM
      1 C          23.8710  -11.3080    4.0440 C.ar    1  UNL1       -0.0013
      2 C          23.0860  -11.0080    2.9570 C.ar    1  UNL1        0.0417
      3 C          21.6940  -11.1110    2.9970 C.ar    1  UNL1        0.1954
      4 O          20.9230  -10.8400    1.9010 O.3     1  UNL1       -0.2866
      5 C          21.1610  -11.5200    4.2080 C.ar    1  UNL1        0.0375
      6 C          21.9030  -11.8020    5.3190 C.ar    1  UNL1       -0.0230
      7 C          21.2690  -12.2240    6.6150 C.3     1  UNL1        0.0261
      8 C          22.2140  -12.9310    7.5270 C.3     1  UNL1        0.0050
      9 C          23.4390  -12.0490    7.7590 C.3     1  UNL1        0.0044
     10 C          24.1890  -12.0140    6.4240 C.3     1  UNL1        0.0220
     11 C          23.3480  -11.6810    5.2360 C.ar    1  UNL1       -0.0263
     12 C          25.3950  -11.0830    6.5410 C.3     1  UNL1        0.0044
     13 C          26.3380  -11.5300    7.6460 C.3     1  UNL1        0.0028
     14 C          25.6110  -11.6690    8.9600 C.3     1  UNL1        0.0282
     15 C          24.3990  -12.5710    8.8140 C.3     1  UNL1        0.0028
     16 C          23.8960  -12.8180   10.2130 C.3     1  UNL1        0.0027
     17 C          25.1970  -12.7730   11.0130 C.3     1  UNL1        0.0329
     18 C          26.3470  -12.3770   10.0800 C.3     1  UNL1        0.1519
     19 O          27.2920  -11.6180   10.8200 O.3     1  UNL1       -0.2232
     20 C          25.1780  -10.3330    9.5050 C.3     1  UNL1        0.0025
@<TRIPOS>BOND
     1     2     1   ar
     2     3     2   ar
     3     4     3    1
     4     5     3   ar
     5     6     5   ar
     6     7     6    1
     7     8     7    1
     8     9     8    1
     9    10     9    1
    10    11     6   ar
    11    11     1   ar
    12    11    10    1
    13    10    12    1
    14    13    12    1
    15    14    13    1
    16    15    14    1
    17    15     9    1
    18    15    16    1
    19    17    16    1
    20    18    14    1
    21    18    17    1
    22    18    19    1
    23    14    20    1
