@<TRIPOS>MOLECULE
9W12_A1ET8_A701
 24 25 0 0 0
SMALL
GASTEIGER

@<TRIPOS>ATOM
      1 C          26.8440   -9.7690    8.4090 C.3     1  UNL1        0.0401
      2 C          25.8350  -10.0470    9.4280 C.3     1  UNL1        0.0358
      3 C          26.2660  -11.2740   10.1580 C.3     1  UNL1        0.1521
      4 O          27.4870  -11.0400   10.9780 O.3     1  UNL1       -0.2231
      5 C          25.1180  -11.8130   11.0600 C.3     1  UNL1        0.0330
      6 C          23.8550  -12.2440   10.3340 C.3     1  UNL1        0.0063
      7 C          24.0250  -13.6340    9.6930 C.3     1  UNL1        0.0437
      8 C          22.9430  -13.8330    8.7010 C.3     1  UNL1        0.1693
      9 C          22.8930  -15.3040    8.2660 C.3     1  UNL1        0.0473
     10 O          23.0680  -12.9840    7.5930 O.3     1  UNL1       -0.4491
     11 C          22.0270  -12.6500    6.8800 C.2     1  UNL1        0.3442
     12 O          20.8630  -12.9590    7.2130 O.2     1  UNL1       -0.2448
     13 C          22.3090  -11.9680    5.6260 C.ar    1  UNL1        0.1146
     14 C          21.3310  -11.7590    4.7100 C.ar    1  UNL1        0.2051
     15 O          20.0590  -12.1120    5.0620 O.3     1  UNL1       -0.2862
     16 C          21.5490  -11.1570    3.4560 C.ar    1  UNL1        0.0842
     17 C          22.7740  -10.7730    3.1060 C.ar    1  UNL1        0.1989
     18 O          22.9630  -10.1920    1.8840 O.3     1  UNL1       -0.2865
     19 C          23.7910  -10.9750    4.0040 C.ar    1  UNL1        0.0424
     20 C          23.5940  -11.5730    5.2730 C.ar    1  UNL1        0.0123
     21 C          24.7500  -11.7510    6.0980 C.2     1  UNL1       -0.0017
     22 C          25.4580  -10.5520    6.4290 C.2     1  UNL1        0.0061
     23 C          26.7190  -10.5590    7.0790 C.3     1  UNL1        0.1741
     24 O          27.5610   -9.7410    6.2470 O.3     1  UNL1       -0.2183
@<TRIPOS>BOND
     1     2     1    1
     2     3     2    1
     3     3     4    1
     4     5     3    1
     5     6     5    1
     6     7     6    1
     7     8     7    1
     8     8     9    1
     9    10     8    1
    10    11    10    1
    11    12    11    2
    12    13    11    1
    13    14    13   ar
    14    15    14    1
    15    16    14   ar
    16    17    16   ar
    17    18    17    1
    18    19    17   ar
    19    20    19   ar
    20    20    13   ar
    21    21    20    1
    22    22    21    2
    23    23    22    1
    24    23     1    1
    25    23    24    1
