4XNX_41X_A707
     RDKit          3D

 23 25  0  0  0  0  0  0  0  0999 V2000
  127.0760  132.2960  131.1810 C   0  0  0  0  0  0  0  0  0  0  0  0
  127.8030  131.4190  130.1760 C   0  0  0  0  0  0  0  0  0  0  0  0
  128.8610  130.6970  130.8090 O   0  0  0  0  0  0  0  0  0  0  0  0
  130.1600  130.9190  130.4390 C   0  0  0  0  0  0  0  0  0  0  0  0
  130.4600  132.0110  129.6340 C   0  0  0  0  0  0  0  0  0  0  0  0
  131.7780  132.2610  129.2430 C   0  0  0  0  0  0  0  0  0  0  0  0
  132.8100  131.4120  129.6630 C   0  0  0  0  0  0  0  0  0  0  0  0
  132.4960  130.3230  130.4750 C   0  0  0  0  0  0  0  0  0  0  0  0
  131.1800  130.0780  130.8670 C   0  0  0  0  0  0  0  0  0  0  0  0
  130.9380  128.9810  131.6620 O   0  0  0  0  0  0  0  0  0  0  0  0
  130.0310  128.9740  132.7730 C   0  0  0  0  0  0  0  0  0  0  0  0
  130.4160  129.9910  133.7810 C   0  0  0  0  0  0  0  0  0  0  0  0
  131.7010  129.9720  134.3220 C   0  0  0  0  0  0  0  0  0  0  0  0
  132.0550  130.9440  135.2550 C   0  0  0  0  0  0  0  0  0  0  0  0
  131.1390  131.9290  135.6480 C   0  0  0  0  0  0  0  0  0  0  0  0
  129.8510  131.9460  135.0990 C   0  0  0  0  0  0  0  0  0  0  0  0
  129.4870  130.9760  134.1590 C   0  0  0  0  0  0  0  0  0  0  0  0
  129.9580  127.5460  133.3130 C   0  0  0  0  0  0  0  0  0  0  0  0
  129.0920  127.4190  134.4300 O   0  0  0  0  0  0  0  0  0  0  0  0
  128.6470  126.0560  134.4230 C   0  0  0  0  0  0  0  0  0  0  0  0
  129.8540  125.1090  134.5710 C   0  0  0  0  0  0  0  0  0  0  0  0
  130.9980  125.4570  133.6830 N   0  0  0  0  0  0  0  0  0  0  0  0
  131.2850  126.9090  133.6970 C   0  0  0  0  0  0  0  0  0  0  0  0
  2  1  1  0
  3  2  1  0
  4  3  1  0
  5  4  2  0
  6  5  1  0
  7  6  2  0
  8  7  1  0
  9  4  1  0
  9  8  2  0
 10  9  1  0
 11 10  1  0
 12 11  1  0
 13 12  2  0
 14 13  1  0
 15 14  2  0
 16 15  1  0
 17 12  1  0
 17 16  2  0
 18 11  1  0
 19 18  1  0
 20 19  1  0
 21 20  1  0
 22 21  1  0
 18 23  1  0
 23 22  1  0
M  CHG  1  22   1
M  END
>  <_TriposChargeType>  (1) 
GASTEIGER

$$$$
