9KDH_A1D5S_B709
     RDKit          3D

 33 36  0  0  0  0  0  0  0  0999 V2000
  130.1940  123.2470  129.2410 C   0  0  0  0  0  0  0  0  0  0  0  0
  128.2850  125.1060  131.9420 C   0  0  0  0  0  0  0  0  0  0  0  0
  129.0710  126.7170  130.2780 C   0  0  0  0  0  0  0  0  0  0  0  0
  129.0690  127.3510  132.6640 C   0  0  0  0  0  0  0  0  0  0  0  0
  130.3750  130.4080  130.9220 C   0  0  0  0  0  0  0  0  0  0  0  0
  131.6070  130.3870  130.2890 C   0  0  0  0  0  0  0  0  0  0  0  0
  131.8520  131.1920  129.1950 C   0  0  0  0  0  0  0  0  0  0  0  0
  129.6470  132.0560  129.3340 C   0  0  0  0  0  0  0  0  0  0  0  0
  128.0830  123.3500  125.0490 C   0  0  0  0  0  0  0  0  0  0  0  0
  126.0800  124.6670  124.7890 C   0  0  0  0  0  0  0  0  0  0  0  0
  128.4670  118.3810  125.8310 C   0  0  0  0  0  0  0  0  0  0  0  0
  129.6890  118.8580  126.2170 C   0  0  0  0  0  0  0  0  0  0  0  0
  129.8770  120.2280  126.2420 C   0  0  0  0  0  0  0  0  0  0  0  0
  128.8560  121.0980  125.8850 C   0  0  0  0  0  0  0  0  0  0  0  0
  127.6360  120.5620  125.5010 C   0  0  0  0  0  0  0  0  0  0  0  0
  127.4320  119.1960  125.4710 C   0  0  0  0  0  0  0  0  0  0  0  0
  129.0570  122.5980  125.9320 C   0  0  0  0  0  0  0  0  0  0  0  0
  128.9200  123.0410  127.2810 O   0  0  0  0  0  0  0  0  0  0  0  0
  130.1090  123.6250  127.8040 C   0  0  0  0  0  0  0  0  0  0  0  0
  129.7470  124.3730  130.1230 N   0  0  0  0  0  0  0  0  0  0  0  0
  128.5600  123.9950  130.9450 C   0  0  0  0  0  0  0  0  0  0  0  0
  129.2310  126.2320  131.6800 N   0  0  0  0  0  0  0  0  0  0  0  0
  129.4510  125.6000  129.3270 C   0  0  0  0  0  0  0  0  0  0  0  0
  128.8700  128.6900  131.9890 C   0  0  0  0  0  0  0  0  0  0  0  0
  130.1120  129.5480  132.1320 C   0  0  0  0  0  0  0  0  0  0  0  0
  130.8720  132.0250  128.7170 C   0  0  0  0  0  0  0  0  0  0  0  0
  129.3960  131.2530  130.4290 C   0  0  0  0  0  0  0  0  0  0  0  0
  126.9800  123.9920  125.5910 C   0  0  0  0  0  0  0  0  0  0  0  0
  126.3050  124.6880  123.4440 C   0  0  0  0  0  0  0  0  0  0  0  0
  127.3740  124.0730  122.8610 C   0  0  0  0  0  0  0  0  0  0  0  0
  128.2660  123.4010  123.6760 C   0  0  0  0  0  0  0  0  0  0  0  0
  128.2640  117.0380  125.8290 F   0  0  0  0  0  0  0  0  0  0  0  0
  125.4320  125.3510  122.6520 F   0  0  0  0  0  0  0  0  0  0  0  0
  6  5  2  0
  7  6  1  0
 12 11  2  0
 13 12  1  0
 14 13  2  0
 15 14  1  0
 16 11  1  0
 16 15  2  0
 17  9  1  0
 17 14  1  0
 17 18  1  0
 19 18  1  0
 19  1  1  0
 20  1  1  0
 21 20  1  0
 21  2  1  0
 22  2  1  0
 22  3  1  0
 22  4  1  0
 23 20  1  0
 23  3  1  0
 24  4  1  0
 25 24  1  0
 25  5  1  0
 26  8  1  0
 26  7  2  0
 27  5  1  0
 27  8  2  0
 28 10  2  0
 28  9  1  0
 29 10  1  0
 30 29  2  0
 31 30  1  0
 31  9  2  0
 32 11  1  0
 33 29  1  0
M  END
>  <_TriposChargeType>  (1) 
GASTEIGER

$$$$
