6M38_29E_A601
     RDKit          3D

 21 23  0  0  0  0  0  0  0  0999 V2000
  130.9780  125.0330  135.3940 C   0  0  0  0  0  0  0  0  0  0  0  0
  129.8320  125.2740  134.5340 N   0  0  0  0  0  0  0  0  0  0  0  0
  130.1470  126.3250  133.5840 C   0  0  0  0  0  0  0  0  0  0  0  0
  130.7630  127.5560  134.2610 C   0  0  0  0  0  0  0  0  0  0  0  0
  130.0970  128.8120  133.6810 C   0  0  0  0  0  0  0  0  0  0  0  0
  130.2410  130.0200  134.6240 C   0  0  0  0  0  0  0  0  0  0  0  0
  131.4810  130.9570  134.7390 S   0  0  0  0  0  0  0  0  0  0  0  0
  131.1650  132.0320  135.8150 C   0  0  0  0  0  0  0  0  0  0  0  0
  129.8320  131.7830  136.3210 C   0  0  0  0  0  0  0  0  0  0  0  0
  129.2440  130.5060  135.5660 C   0  0  0  0  0  0  0  0  0  0  0  0
  130.6530  129.0930  132.4170 O   0  0  0  0  0  0  0  0  0  0  0  0
  129.9390  130.0580  131.7010 C   0  0  0  0  0  0  0  0  0  0  0  0
  130.8110  130.6870  130.7860 C   0  0  0  0  0  0  0  0  0  0  0  0
  132.1640  130.3050  130.6990 C   0  0  0  0  0  0  0  0  0  0  0  0
  133.0110  130.9320  129.7930 C   0  0  0  0  0  0  0  0  0  0  0  0
  132.5370  131.9410  128.9620 C   0  0  0  0  0  0  0  0  0  0  0  0
  131.2030  132.3200  129.0470 C   0  0  0  0  0  0  0  0  0  0  0  0
  130.3420  131.6850  129.9660 C   0  0  0  0  0  0  0  0  0  0  0  0
  128.9980  132.0830  130.0400 C   0  0  0  0  0  0  0  0  0  0  0  0
  128.1480  131.4610  130.9430 C   0  0  0  0  0  0  0  0  0  0  0  0
  128.6130  130.4510  131.7800 C   0  0  0  0  0  0  0  0  0  0  0  0
  2  1  1  0
  3  2  1  0
  4  3  1  0
  5  4  1  0
  6  5  1  0
  7  6  1  0
  8  7  1  0
  9  8  2  0
 10  6  2  0
 10  9  1  0
 11  5  1  0
 12 11  1  0
 13 12  1  0
 14 13  2  0
 15 14  1  0
 16 15  2  0
 17 16  1  0
 18 13  1  0
 18 17  2  0
 19 18  1  0
 20 19  2  0
 21 12  2  0
 21 20  1  0
M  END
>  <_TriposChargeType>  (1) 
GASTEIGER

$$$$
