@<TRIPOS>MOLECULE
1NHZ_486_A800
 32 36 0 0 0
SMALL
GASTEIGER

@<TRIPOS>ATOM
      1 O          32.7870    9.2640    7.3220 O.2     1  UNL1       -0.2913
      2 C          32.4980    8.9350    8.4310 C.2     1  UNL1        0.1731
      3 C          31.0210    8.6140    8.8890 C.3     1  UNL1        0.0738
      4 C          33.5320    8.7050    9.5020 C.2     1  UNL1        0.0329
      5 C          33.2210    7.8400   10.5050 C.2     1  UNL1       -0.0239
      6 C          34.2890    7.6610   11.6380 C.3     1  UNL1        0.0264
      7 C          31.8550    7.2470   10.5250 C.2     1  UNL1       -0.0332
      8 C          31.1150    7.1470    9.0910 C.3     1  UNL1        0.0335
      9 C          31.3260    6.9050   11.7780 C.2     1  UNL1       -0.0450
     10 C          29.8330    6.2620   12.0800 C.3     1  UNL1        0.0403
     11 C          29.9810    4.6930   11.9760 C.ar    1  UNL1       -0.0187
     12 C          31.3120    4.0950   11.8570 C.ar    1  UNL1       -0.0027
     13 C          31.5300    2.7330   11.8470 C.ar    1  UNL1        0.0142
     14 C          30.4270    1.8140   11.9910 C.ar    1  UNL1        0.0479
     15 N          30.5540    0.3720   11.9200 N.pl3   1  UNL1       -0.3041
     16 C          29.3350   -0.4310   12.0400 C.3     1  UNL1        0.1122
     17 C          31.7390   -0.2900   11.3130 C.3     1  UNL1        0.1122
     18 C          29.0740    2.4070   12.1030 C.ar    1  UNL1        0.0142
     19 C          28.8640    3.8070   12.1220 C.ar    1  UNL1       -0.0027
     20 C          29.2940    6.7280   13.4530 C.3     1  UNL1        0.0117
     21 C          30.2070    7.0640   14.6800 C.3     1  UNL1        0.0374
     22 C          30.5170    5.6010   15.3610 C.3     1  UNL1        0.0035
     23 C          29.5110    7.9300   15.7780 C.3     1  UNL1        0.1788
     24 C          28.9210    9.2630   15.3510 C.1     1  UNL1       -0.0622
     25 C          28.1230   10.0450   14.8880 C.1     1  UNL1       -0.0877
     26 C          27.4760   11.3560   14.5950 C.3     1  UNL1        0.0900
     27 O          28.5790    7.1680   16.5920 O.3     1  UNL1       -0.2125
     28 C          30.8410    8.2370   16.5450 C.3     1  UNL1        0.0430
     29 C          31.9930    8.3050   15.4940 C.3     1  UNL1        0.0040
     30 C          31.3570    7.9580   14.0840 C.3     1  UNL1        0.0071
     31 C          32.2590    7.2060   13.1010 C.3     1  UNL1        0.0187
     32 C          33.5780    8.0640   12.9000 C.3     1  UNL1        0.0087
@<TRIPOS>BOND
     1     2     1    2
     2     3     2    1
     3     4     2    1
     4     5     4    2
     5     6     5    1
     6     7     5    1
     7     8     7    1
     8     8     3    1
     9     9     7    2
    10    10     9    1
    11    10    11    1
    12    12    11   ar
    13    13    12   ar
    14    14    13   ar
    15    15    14    1
    16    16    15    1
    17    17    15    1
    18    18    14   ar
    19    19    18   ar
    20    19    11   ar
    21    20    10    1
    22    21    20    1
    23    21    22    1
    24    23    21    1
    25    24    23    1
    26    25    24    3
    27    26    25    1
    28    23    27    1
    29    28    23    1
    30    29    28    1
    31    30    29    1
    32    30    21    1
    33    31    30    1
    34    31     9    1
    35    31    32    1
    36    32     6    1
