@<TRIPOS>MOLECULE
1P93_DEX_C3999
 28 31 0 0 0
SMALL
GASTEIGER

@<TRIPOS>ATOM
      1 C          31.2430    6.9150    9.2170 C.2     1  UNL1       -0.0171
      2 C          31.6470    7.6740    8.0910 C.2     1  UNL1        0.0378
      3 C          32.8980    8.5310    8.1900 C.2     1  UNL1        0.1948
      4 C          33.6590    8.5240    9.5290 C.2     1  UNL1        0.0339
      5 C          33.2760    7.7920   10.6300 C.2     1  UNL1       -0.0354
      6 C          34.1370    7.8350   12.0110 C.3     1  UNL1        0.0226
      7 C          33.1970    8.0420   13.2300 C.3     1  UNL1        0.0071
      8 C          31.9080    7.0360   13.2960 C.3     1  UNL1        0.0336
      9 C          31.0110    7.0900   11.9600 C.3     1  UNL1        0.1679
     10 C          31.9670    6.8400   10.6430 C.3     1  UNL1        0.0639
     11 C          29.7010    6.1460   12.0460 C.3     1  UNL1        0.1823
     12 C          28.8950    6.4390   13.3400 C.3     1  UNL1        0.0385
     13 C          29.7090    6.4230   14.7360 C.3     1  UNL1        0.0350
     14 C          30.9820    7.3370   14.5780 C.3     1  UNL1        0.0055
     15 C          31.6420    7.2710   16.0240 C.3     1  UNL1        0.0031
     16 C          30.4600    7.6170   16.8960 C.3     1  UNL1        0.0349
     17 C          29.1870    7.1160   16.0910 C.3     1  UNL1        0.1795
     18 C          30.0210    4.8470   15.0140 C.3     1  UNL1        0.0030
     19 C          32.5720    5.3570   10.7000 C.3     1  UNL1        0.0112
     20 C          28.1150    6.3870   16.9460 C.2     1  UNL1        0.2109
     21 C          26.8670    5.8770   16.2600 C.3     1  UNL1        0.2484
     22 C          30.4120    9.1640   17.2040 C.3     1  UNL1        0.0030
     23 F          30.5570    8.3530   11.8040 F       1  UNL1       -0.2368
     24 O          33.3550    9.2500    7.2390 O.2     1  UNL1       -0.2866
     25 O          29.8970    4.8140   11.9980 O.3     1  UNL1       -0.2203
     26 O          28.3290    8.1900   15.8470 O.3     1  UNL1       -0.2181
     27 O          28.3310    6.2460   18.2030 O.2     1  UNL1       -0.2907
     28 O          26.0590    5.2730   17.1740 O.3     1  UNL1       -0.2118
@<TRIPOS>BOND
     1     2     1    2
     2     3     2    1
     3     4     3    1
     4     5     4    2
     5     6     5    1
     6     7     6    1
     7     8     7    1
     8     9     8    1
     9    10     1    1
    10    10     9    1
    11    10     5    1
    12    11     9    1
    13    12    11    1
    14    13    12    1
    15    14    13    1
    16    14     8    1
    17    14    15    1
    18    16    15    1
    19    17    13    1
    20    17    16    1
    21    13    18    1
    22    10    19    1
    23    20    17    1
    24    21    20    1
    25    16    22    1
    26     9    23    1
    27    24     3    2
    28    11    25    1
    29    17    26    1
    30    27    20    2
    31    28    21    1
