@<TRIPOS>MOLECULE
1P93_DEX_C3999
 28 31 0 0 0
SMALL
GASTEIGER

@<TRIPOS>ATOM
      1 C          31.1530    6.9230    9.2280 C.2     1  UNL1       -0.0171
      2 C          31.5500    7.6750    8.0960 C.2     1  UNL1        0.0378
      3 C          32.8040    8.5300    8.1810 C.2     1  UNL1        0.1948
      4 C          33.5760    8.5260    9.5140 C.2     1  UNL1        0.0339
      5 C          33.2000    7.7990   10.6210 C.2     1  UNL1       -0.0354
      6 C          34.0730    7.8460   11.9950 C.3     1  UNL1        0.0226
      7 C          33.1440    8.0610   13.2200 C.3     1  UNL1        0.0071
      8 C          31.8530    7.0580   13.3020 C.3     1  UNL1        0.0336
      9 C          30.9440    7.1090   11.9730 C.3     1  UNL1        0.1679
     10 C          31.8890    6.8510   10.6480 C.3     1  UNL1        0.0639
     11 C          29.6330    6.1690   12.0740 C.3     1  UNL1        0.1823
     12 C          28.8390    6.4700   13.3730 C.3     1  UNL1        0.0385
     13 C          29.6650    6.4570   14.7620 C.3     1  UNL1        0.0350
     14 C          30.9380    7.3660   14.5900 C.3     1  UNL1        0.0055
     15 C          31.6100    7.3050   16.0310 C.3     1  UNL1        0.0031
     16 C          30.4360    7.6570   16.9110 C.3     1  UNL1        0.0349
     17 C          29.1550    7.1570   16.1180 C.3     1  UNL1        0.1795
     18 C          29.9740    4.8820   15.0440 C.3     1  UNL1        0.0030
     19 C          32.4900    5.3670   10.7070 C.3     1  UNL1        0.0112
     20 C          28.0890    6.4340   16.9850 C.2     1  UNL1        0.2109
     21 C          26.8330    5.9240   16.3120 C.3     1  UNL1        0.2484
     22 C          30.3950    9.2060   17.2130 C.3     1  UNL1        0.0030
     23 F          30.4920    8.3720   11.8150 F       1  UNL1       -0.2368
     24 O          33.2550    9.2440    7.2240 O.2     1  UNL1       -0.2866
     25 O          29.8250    4.8360   12.0290 O.3     1  UNL1       -0.2203
     26 O          28.2980    8.2320   15.8780 O.3     1  UNL1       -0.2181
     27 O          28.3150    6.2970   18.2410 O.2     1  UNL1       -0.2907
     28 O          26.0310    5.3270   17.2350 O.3     1  UNL1       -0.2118
@<TRIPOS>BOND
     1     2     1    2
     2     3     2    1
     3     4     3    1
     4     5     4    2
     5     6     5    1
     6     7     6    1
     7     8     7    1
     8     9     8    1
     9    10     1    1
    10    10     9    1
    11    10     5    1
    12    11     9    1
    13    12    11    1
    14    13    12    1
    15    14    13    1
    16    14     8    1
    17    14    15    1
    18    16    15    1
    19    17    13    1
    20    17    16    1
    21    13    18    1
    22    10    19    1
    23    20    17    1
    24    21    20    1
    25    16    22    1
    26     9    23    1
    27    24     3    2
    28    11    25    1
    29    17    26    1
    30    27    20    2
    31    28    21    1
