@<TRIPOS>MOLECULE
3CLD_GW6_A1
 37 41 0 0 0
SMALL
GASTEIGER

@<TRIPOS>ATOM
      1 C          30.3050    8.6900   17.6720 C.3     1  UNL1        0.0041
      2 C          30.3540    7.4690   16.7790 C.3     1  UNL1        0.0445
      3 C          31.5290    7.5520   15.8210 C.3     1  UNL1        0.0041
      4 C          30.8600    7.4770   14.4610 C.3     1  UNL1        0.0066
      5 C          31.7040    7.1170   13.2540 C.3     1  UNL1        0.0363
      6 C          32.7830    8.1660   13.0860 C.3     1  UNL1        0.0423
      7 C          33.5880    7.8890   11.8380 C.3     1  UNL1        0.1799
      8 F          34.4440    8.9240   11.6240 F       1  UNL1       -0.2328
      9 C          32.7090    7.6840   10.6480 C.2     1  UNL1       -0.0034
     10 C          32.9140    8.4320    9.5670 C.2     1  UNL1        0.0365
     11 C          32.0570    8.2260    8.3960 C.2     1  UNL1        0.1949
     12 O          32.2890    8.8300    7.3620 O.2     1  UNL1       -0.2866
     13 C          30.9250    7.2920    8.4650 C.2     1  UNL1        0.0378
     14 C          30.7800    6.5920    9.5840 C.2     1  UNL1       -0.0170
     15 C          31.6490    6.6520   10.7720 C.3     1  UNL1        0.0663
     16 C          32.2760    5.2810   10.8910 C.3     1  UNL1        0.0113
     17 C          30.8310    7.0610   11.9980 C.3     1  UNL1        0.1680
     18 F          30.4270    8.3460   11.7720 F       1  UNL1       -0.2368
     19 C          29.5280    6.2640   12.1690 C.3     1  UNL1        0.1823
     20 O          29.7400    4.8600   12.1580 O.3     1  UNL1       -0.2203
     21 C          28.7920    6.5820   13.4570 C.3     1  UNL1        0.0395
     22 C          29.6820    6.5580   14.6880 C.3     1  UNL1        0.0436
     23 C          30.1060    5.1320   15.0250 C.3     1  UNL1        0.0040
     24 C          29.1140    7.2700   15.9070 C.3     1  UNL1        0.1959
     25 O          28.5880    8.5430   15.4740 O.3     1  UNL1       -0.4426
     26 C          27.5690    9.1340   16.1750 C.2     1  UNL1        0.3765
     27 O          27.0560    8.7320   17.2100 O.2     1  UNL1       -0.2414
     28 C          27.1960   10.3340   15.5050 C.ar    1  UNL1        0.2206
     29 C          27.3280   10.7320   14.1930 C.ar    1  UNL1        0.0475
     30 C          26.7750   12.0320   14.1200 C.ar    1  UNL1        0.0440
     31 C          26.3420   12.3430   15.3910 C.ar    1  UNL1        0.1799
     32 O          26.5950   11.3090   16.2430 O.2     1  UNL1       -0.4439
     33 C          28.0520    6.4410   16.6050 C.2     1  UNL1        0.2371
     34 O          28.1980    5.9680   17.7230 O.2     1  UNL1       -0.2807
     35 S          26.5610    6.1940   15.7030 S.3     1  UNL1       -0.0357
     36 C          25.5950    5.4200   17.0110 C.3     1  UNL1        0.2582
     37 F          26.1090    4.1780   17.2130 F       1  UNL1       -0.2208
@<TRIPOS>BOND
     1     2     1    1
     2     3     2    1
     3     4     3    1
     4     5     4    1
     5     5     6    1
     6     7     6    1
     7     7     8    1
     8     9     7    1
     9    10     9    2
    10    11    10    1
    11    12    11    2
    12    13    11    1
    13    14    13    2
    14    15    14    1
    15    15     9    1
    16    15    16    1
    17    17    15    1
    18    17     5    1
    19    17    18    1
    20    19    17    1
    21    19    20    1
    22    21    19    1
    23    22    21    1
    24    22     4    1
    25    22    23    1
    26    24    22    1
    27    24     2    1
    28    24    25    1
    29    26    25    1
    30    27    26    2
    31    28    26    1
    32    29    28   ar
    33    30    29   ar
    34    31    30   ar
    35    32    28   ar
    36    32    31   ar
    37    33    24    1
    38    34    33    2
    39    35    33    1
    40    36    35    1
    41    37    36    1
