@<TRIPOS>MOLECULE
3CLD_GW6_A1
 37 41 0 0 0
SMALL
GASTEIGER

@<TRIPOS>ATOM
      1 C          30.3010    8.6780   17.7190 C.3     1  UNL1        0.0041
      2 C          30.3460    7.4590   16.8220 C.3     1  UNL1        0.0445
      3 C          31.5210    7.5430   15.8640 C.3     1  UNL1        0.0041
      4 C          30.8510    7.4730   14.5040 C.3     1  UNL1        0.0066
      5 C          31.6930    7.1150   13.2960 C.3     1  UNL1        0.0363
      6 C          32.7740    8.1620   13.1300 C.3     1  UNL1        0.0423
      7 C          33.5780    7.8870   11.8810 C.3     1  UNL1        0.1799
      8 F          34.4360    8.9210   11.6690 F       1  UNL1       -0.2328
      9 C          32.6980    7.6880   10.6910 C.2     1  UNL1       -0.0034
     10 C          32.9030    8.4390    9.6120 C.2     1  UNL1        0.0365
     11 C          32.0450    8.2380    8.4410 C.2     1  UNL1        0.1949
     12 O          32.2770    8.8440    7.4090 O.2     1  UNL1       -0.2866
     13 C          30.9120    7.3050    8.5080 C.2     1  UNL1        0.0378
     14 C          30.7650    6.6020    9.6250 C.2     1  UNL1       -0.0170
     15 C          31.6360    6.6570   10.8130 C.3     1  UNL1        0.0663
     16 C          32.2600    5.2840   10.9270 C.3     1  UNL1        0.0113
     17 C          30.8190    7.0640   12.0400 C.3     1  UNL1        0.1680
     18 F          30.4180    8.3500   11.8180 F       1  UNL1       -0.2368
     19 C          29.5150    6.2690   12.2100 C.3     1  UNL1        0.1823
     20 O          29.7240    4.8640   12.1950 O.3     1  UNL1       -0.2203
     21 C          28.7800    6.5850   13.4990 C.3     1  UNL1        0.0395
     22 C          29.6710    6.5550   14.7290 C.3     1  UNL1        0.0436
     23 C          30.0930    5.1280   15.0620 C.3     1  UNL1        0.0040
     24 C          29.1050    7.2650   15.9510 C.3     1  UNL1        0.1959
     25 O          28.5820    8.5400   15.5230 O.3     1  UNL1       -0.4426
     26 C          27.5650    9.1310   16.2260 C.2     1  UNL1        0.3765
     27 O          27.0510    8.7270   17.2600 O.2     1  UNL1       -0.2414
     28 C          27.1930   10.3340   15.5590 C.ar    1  UNL1        0.2206
     29 C          27.3250   10.7350   14.2480 C.ar    1  UNL1        0.0475
     30 C          26.7740   12.0370   14.1800 C.ar    1  UNL1        0.0440
     31 C          26.3430   12.3450   15.4520 C.ar    1  UNL1        0.1799
     32 O          26.5950   11.3080   16.3000 O.2     1  UNL1       -0.4439
     33 C          28.0430    6.4360   16.6480 C.2     1  UNL1        0.2371
     34 O          28.1880    5.9590   17.7640 O.2     1  UNL1       -0.2807
     35 S          26.5500    6.1950   15.7460 S.3     1  UNL1       -0.0357
     36 C          25.5840    5.4190   17.0520 C.3     1  UNL1        0.2582
     37 F          26.0950    4.1750   17.2510 F       1  UNL1       -0.2208
@<TRIPOS>BOND
     1     2     1    1
     2     3     2    1
     3     4     3    1
     4     5     4    1
     5     5     6    1
     6     7     6    1
     7     7     8    1
     8     9     7    1
     9    10     9    2
    10    11    10    1
    11    12    11    2
    12    13    11    1
    13    14    13    2
    14    15    14    1
    15    15     9    1
    16    15    16    1
    17    17    15    1
    18    17     5    1
    19    17    18    1
    20    19    17    1
    21    19    20    1
    22    21    19    1
    23    22    21    1
    24    22     4    1
    25    22    23    1
    26    24    22    1
    27    24     2    1
    28    24    25    1
    29    26    25    1
    30    27    26    2
    31    28    26    1
    32    29    28   ar
    33    30    29   ar
    34    31    30   ar
    35    32    28   ar
    36    32    31   ar
    37    33    24    1
    38    34    33    2
    39    35    33    1
    40    36    35    1
    41    37    36    1
