@<TRIPOS>MOLECULE
3E7C_866_A1
 37 39 0 0 0
SMALL
GASTEIGER

@<TRIPOS>ATOM
      1 C          26.1190    5.5750   16.1000 C.3     1  UNL1        0.0233
      2 C          26.4440    6.3770   14.8670 C.3     1  UNL1        0.0939
      3 N          27.8640    6.5240   14.7630 N.am    1  UNL1       -0.2732
      4 C          28.5730    5.3470   14.3470 C.3     1  UNL1        0.1343
      5 C          29.1340    5.4430   12.9520 C.3     1  UNL1        0.2506
      6 O          28.0840    5.3420   12.0160 O.3     1  UNL1       -0.2132
      7 C          29.8510    6.7490   12.7320 C.3     1  UNL1        0.1560
      8 N          30.3360    6.8340   11.3860 N.am    1  UNL1       -0.1985
      9 C          31.4350    7.5960   11.1320 C.2     1  UNL1        0.2693
     10 O          32.1480    8.1150   11.9700 O.2     1  UNL1       -0.2682
     11 C          31.6940    7.7360    9.7450 C.ar    1  UNL1        0.1106
     12 C          30.9650    7.2870    8.6230 C.ar    1  UNL1        0.1280
     13 N          31.5650    7.6150    7.4770 N.ar    1  UNL1       -0.1621
     14 N          32.6640    8.2750    7.8650 N.ar    1  UNL1       -0.2127
     15 C          32.7840    8.3650    9.2150 C.ar    1  UNL1        0.1770
     16 N          33.8310    8.9810    9.7750 N.pl3   1  UNL1       -0.1069
     17 C          33.5460    8.8310    6.9570 C.ar    1  UNL1        0.0844
     18 C          33.1930    9.9660    6.2750 C.ar    1  UNL1        0.0215
     19 C          34.0800   10.5050    5.3780 C.ar    1  UNL1        0.0312
     20 C          35.2970    9.9060    5.1800 C.ar    1  UNL1        0.1402
     21 F          36.1640   10.4260    4.3070 F       1  UNL1       -0.2042
     22 C          35.6420    8.7720    5.8670 C.ar    1  UNL1        0.0312
     23 C          34.7600    8.2280    6.7660 C.ar    1  UNL1        0.0215
     24 C          30.0630    4.2870   12.7240 C.3     1  UNL1        0.4259
     25 F          30.2700    4.0720   11.4160 F       1  UNL1       -0.1673
     26 F          31.2640    4.5010   13.2830 F       1  UNL1       -0.1673
     27 F          29.5640    3.1660   13.2760 F       1  UNL1       -0.1673
     28 C          28.4850    7.3490   15.6630 C.2     1  UNL1        0.2507
     29 O          29.6630    7.3200   15.9680 O.2     1  UNL1       -0.2698
     30 C          27.6330    8.3460   16.3030 C.ar    1  UNL1        0.0747
     31 C          27.1960    9.4350   15.5950 C.ar    1  UNL1        0.0628
     32 CL         27.6120    9.6550   13.9540 Cl      1  UNL1       -0.0821
     33 C          26.4070   10.3740   16.2040 C.ar    1  UNL1        0.0116
     34 C          26.0550   10.2260   17.5210 C.ar    1  UNL1        0.0017
     35 C          26.4980    9.1370   18.2300 C.ar    1  UNL1        0.0116
     36 C          27.2880    8.2000   17.6190 C.ar    1  UNL1        0.0628
     37 CL         27.8130    6.8610   18.5380 Cl      1  UNL1       -0.0821
@<TRIPOS>BOND
     1     2     1    1
     2     3     2    1
     3     4     3    1
     4     5     4    1
     5     5     6    1
     6     7     5    1
     7     8     7    1
     8     9     8   am
     9    10     9    2
    10    11     9    1
    11    12    11   ar
    12    13    12   ar
    13    14    13   ar
    14    15    14   ar
    15    15    11   ar
    16    16    15    1
    17    17    14    1
    18    18    17   ar
    19    19    18   ar
    20    20    19   ar
    21    21    20    1
    22    22    20   ar
    23    23    22   ar
    24    23    17   ar
    25    24     5    1
    26    24    25    1
    27    26    24    1
    28    27    24    1
    29    28     3   am
    30    29    28    2
    31    30    28    1
    32    31    30   ar
    33    32    31    1
    34    33    31   ar
    35    34    33   ar
    36    35    34   ar
    37    36    35   ar
    38    36    30   ar
    39    37    36    1
