@<TRIPOS>MOLECULE
3H52_486_C4
 32 36 0 0 0
SMALL
GASTEIGER

@<TRIPOS>ATOM
      1 O          35.8330   12.4900    7.5840 O.2     1  UNL1       -0.2913
      2 C          35.1190   11.7900    8.2950 C.2     1  UNL1        0.1731
      3 C          33.7660   11.3570    7.7800 C.3     1  UNL1        0.0738
      4 C          35.5860   11.4210    9.5780 C.2     1  UNL1        0.0329
      5 C          34.8410   10.6640   10.4130 C.2     1  UNL1       -0.0239
      6 C          35.3460   10.2540   11.7750 C.3     1  UNL1        0.0264
      7 C          33.5390   10.1520    9.9960 C.2     1  UNL1       -0.0332
      8 C          33.1820   10.1530    8.5250 C.3     1  UNL1        0.0335
      9 C          32.6930    9.6090   10.8690 C.2     1  UNL1       -0.0450
     10 C          31.3980    9.0700   10.2900 C.3     1  UNL1        0.0403
     11 C          31.6920    7.6550    9.8540 C.ar    1  UNL1       -0.0187
     12 C          30.8200    6.9380    9.0580 C.ar    1  UNL1       -0.0027
     13 C          31.1450    5.6550    8.6580 C.ar    1  UNL1        0.0142
     14 C          32.3490    5.0740    9.0380 C.ar    1  UNL1        0.0479
     15 N          32.6930    3.7700    8.6370 N.pl3   1  UNL1       -0.3041
     16 C          31.8020    2.9670    7.8010 C.3     1  UNL1        0.1122
     17 C          33.9710    3.1890    9.0530 C.3     1  UNL1        0.1122
     18 C          33.2210    5.8020    9.8260 C.ar    1  UNL1        0.0142
     19 C          32.8890    7.0800   10.2260 C.ar    1  UNL1       -0.0027
     20 C          30.1700    9.1890   11.2060 C.3     1  UNL1        0.0117
     21 C          30.5440    9.1690   12.6740 C.3     1  UNL1        0.0374
     22 C          30.8800    7.7310   13.0880 C.3     1  UNL1        0.0035
     23 C          29.4520    9.7370   13.5710 C.3     1  UNL1        0.1788
     24 C          28.7320   10.8060   12.8520 C.1     1  UNL1       -0.0622
     25 C          28.1640   11.6420   12.2430 C.1     1  UNL1       -0.0877
     26 C          27.4520   12.6500   11.4350 C.3     1  UNL1        0.0900
     27 O          28.5500    8.6880   13.9430 O.3     1  UNL1       -0.2125
     28 C          30.1910   10.3070   14.8120 C.3     1  UNL1        0.0430
     29 C          31.7060   10.1350   14.5170 C.3     1  UNL1        0.0040
     30 C          31.7210   10.1350   12.9830 C.3     1  UNL1        0.0071
     31 C          32.9740    9.5560   12.3420 C.3     1  UNL1        0.0187
     32 C          34.1930   10.3600   12.7730 C.3     1  UNL1        0.0087
@<TRIPOS>BOND
     1     2     1    2
     2     3     2    1
     3     4     2    1
     4     5     4    2
     5     6     5    1
     6     7     5    1
     7     8     7    1
     8     8     3    1
     9     9     7    2
    10    10     9    1
    11    10    11    1
    12    12    11   ar
    13    13    12   ar
    14    14    13   ar
    15    15    14    1
    16    16    15    1
    17    17    15    1
    18    18    14   ar
    19    19    11   ar
    20    19    18   ar
    21    20    10    1
    22    21    20    1
    23    21    22    1
    24    23    21    1
    25    24    23    1
    26    25    24    3
    27    26    25    1
    28    23    27    1
    29    28    23    1
    30    29    28    1
    31    30    29    1
    32    30    21    1
    33    31     9    1
    34    31    30    1
    35    31    32    1
    36    32     6    1
