@<TRIPOS>MOLECULE
3K22_JZS_B1
 36 38 0 0 0
SMALL
GASTEIGER

@<TRIPOS>ATOM
      1 C          39.2360    7.3760    3.0490 C.3     1  UNL1        0.0334
      2 F          30.0450    4.0430   11.5540 F       1  UNL1       -0.1671
      3 N          37.2840    7.3100    4.4650 N.am    1  UNL1       -0.1940
      4 O          37.0350    6.4980    6.6020 O.2     1  UNL1       -0.2684
      5 C          38.6140    6.8060    4.2910 C.3     1  UNL1        0.1747
      6 F          28.9100    3.1270   13.1600 F       1  UNL1       -0.1671
      7 N          32.5050    8.2950    7.8210 N.ar    1  UNL1       -0.2296
      8 O          28.0540    5.6270   12.6310 O.3     1  UNL1       -0.2060
      9 C          36.6970    7.2280    5.6910 C.2     1  UNL1        0.2652
     10 F          30.9100    3.7640   13.5360 F       1  UNL1       -0.1671
     11 N          31.4480    7.6280    7.3540 N.ar    1  UNL1       -0.1635
     12 O          39.3540    4.5330    4.3510 O.2     1  UNL1       -0.2698
     13 C          35.5460    8.1010    5.8570 C.ar    1  UNL1        0.0565
     14 F          28.0360    4.5370   15.0720 F       1  UNL1       -0.1671
     15 N          30.1420    6.7130   11.4440 N.pl3   1  UNL1       -0.2343
     16 C          35.4510    9.2300    5.0890 C.ar    1  UNL1        0.0047
     17 F          28.6880    6.5800   15.2430 F       1  UNL1       -0.1671
     18 N          37.2530    4.9990    3.6010 N.am    1  UNL1       -0.0863
     19 C          34.3590   10.0460    5.2470 C.ar    1  UNL1        0.0017
     20 F          30.1160    4.9360   15.4160 F       1  UNL1       -0.1671
     21 C          33.3830    9.7310    6.1600 C.ar    1  UNL1        0.0192
     22 C          33.5080    8.5980    6.9160 C.ar    1  UNL1        0.0829
     23 C          34.5840    7.7630    6.7750 C.ar    1  UNL1        0.0237
     24 C          30.8340    7.2030    8.4500 C.ar    1  UNL1        0.1233
     25 C          31.4900    7.6110    9.6250 C.ar    1  UNL1        0.0534
     26 C          31.2410    7.4330   10.9670 C.ar    1  UNL1        0.0681
     27 C          30.2360    6.5210   12.8730 C.3     1  UNL1        0.1598
     28 C          29.2840    5.4230   13.2820 C.3     1  UNL1        0.3179
     29 C          29.7960    4.0830   12.8690 C.3     1  UNL1        0.4324
     30 C          29.0330    5.3790   14.7580 C.3     1  UNL1        0.4324
     31 C          32.1550    8.0140   11.8030 C.ar    1  UNL1        0.0120
     32 C          33.2350    8.7220   11.3500 C.ar    1  UNL1       -0.0191
     33 C          34.1630    9.3120   12.3400 C.3     1  UNL1        0.0311
     34 C          33.4870    8.9040   10.0170 C.ar    1  UNL1        0.0150
     35 C          32.5750    8.3220    9.1820 C.ar    1  UNL1        0.0852
     36 C          38.4710    5.3330    4.0950 C.2     1  UNL1        0.2806
@<TRIPOS>BOND
     1     5     3    1
     2     5     1    1
     3     9     3   am
     4     9     4    2
     5    11     7   ar
     6    13     9    1
     7    16    13   ar
     8    19    16   ar
     9    21    19   ar
    10    22     7    1
    11    22    21   ar
    12    23    22   ar
    13    23    13   ar
    14    24    11   ar
    15    25    24   ar
    16    26    25   ar
    17    26    15    1
    18    27    15    1
    19    28    27    1
    20    28     8    1
    21    29    28    1
    22    29    10    1
    23    29     6    1
    24    29     2    1
    25    30    28    1
    26    30    20    1
    27    30    14    1
    28    30    17    1
    29    31    26   ar
    30    32    31   ar
    31    33    32    1
    32    34    32   ar
    33    35    25   ar
    34    35     7   ar
    35    35    34   ar
    36    36    18   am
    37    36    12    2
    38    36     5    1
