@<TRIPOS>MOLECULE
4UDC_DEX_A1778
 28 31 0 0 0
SMALL
GASTEIGER

@<TRIPOS>ATOM
      1 C          30.9240    6.6890    9.4640 C.2     1  UNL1       -0.0171
      2 C          31.1840    7.4260    8.3930 C.2     1  UNL1        0.0378
      3 C          32.2970    8.3940    8.4200 C.2     1  UNL1        0.1948
      4 C          33.0820    8.5630    9.6600 C.2     1  UNL1        0.0339
      5 C          32.8350    7.7770   10.7160 C.2     1  UNL1       -0.0354
      6 C          33.6760    7.9960   11.9790 C.3     1  UNL1        0.0226
      7 C          32.7520    8.2680   13.1820 C.3     1  UNL1        0.0071
      8 C          31.5950    7.2420   13.2980 C.3     1  UNL1        0.0336
      9 C          30.7890    7.1660   11.9600 C.3     1  UNL1        0.1679
     10 C          31.7020    6.7390   10.7520 C.3     1  UNL1        0.0639
     11 C          29.4970    6.3040   12.0940 C.3     1  UNL1        0.1823
     12 C          28.6540    6.6200   13.3590 C.3     1  UNL1        0.0385
     13 C          29.4610    6.5990   14.6760 C.3     1  UNL1        0.0350
     14 C          30.6630    7.6030   14.4690 C.3     1  UNL1        0.0055
     15 C          31.2430    7.7570   15.8870 C.3     1  UNL1        0.0031
     16 C          29.9740    7.7080   16.7940 C.3     1  UNL1        0.0349
     17 C          28.7720    7.2490   15.9110 C.3     1  UNL1        0.1795
     18 C          29.9100    5.1410   15.0170 C.3     1  UNL1        0.0030
     19 C          32.3220    5.3180   10.8400 C.3     1  UNL1        0.0112
     20 C          27.8010    6.3040   16.6260 C.2     1  UNL1        0.2109
     21 C          26.4230    6.0510   16.0620 C.3     1  UNL1        0.2484
     22 C          29.7580    9.0760   17.4350 C.3     1  UNL1        0.0030
     23 F          30.3630    8.4710   11.6850 F       1  UNL1       -0.2368
     24 O          32.5710    9.0160    7.4110 O.2     1  UNL1       -0.2866
     25 O          29.7680    4.9010   12.0580 O.3     1  UNL1       -0.2203
     26 O          28.0130    8.4220   15.5660 O.3     1  UNL1       -0.2181
     27 O          28.0870    5.7420   17.6570 O.2     1  UNL1       -0.2907
     28 O          25.8530    4.8650   16.6020 O.3     1  UNL1       -0.2118
@<TRIPOS>BOND
     1     2     1    2
     2     3     2    1
     3     4     3    1
     4     5     4    2
     5     6     5    1
     6     7     6    1
     7     8     7    1
     8     9     8    1
     9    10     1    1
    10    10     9    1
    11    10     5    1
    12    11     9    1
    13    12    11    1
    14    13    12    1
    15    14    13    1
    16    14     8    1
    17    14    15    1
    18    16    15    1
    19    17    13    1
    20    17    16    1
    21    13    18    1
    22    10    19    1
    23    20    17    1
    24    21    20    1
    25    16    22    1
    26     9    23    1
    27    24     3    2
    28    11    25    1
    29    17    26    1
    30    27    20    2
    31    28    21    1
