@<TRIPOS>MOLECULE
4UDC_DEX_A1778
 28 31 0 0 0
SMALL
GASTEIGER

@<TRIPOS>ATOM
      1 C          30.8840    6.6940    9.5240 C.2     1  UNL1       -0.0171
      2 C          31.1480    7.4330    8.4570 C.2     1  UNL1        0.0378
      3 C          32.2620    8.4000    8.4910 C.2     1  UNL1        0.1948
      4 C          33.0420    8.5650    9.7350 C.2     1  UNL1        0.0339
      5 C          32.7900    7.7770   10.7880 C.2     1  UNL1       -0.0354
      6 C          33.6260    7.9910   12.0540 C.3     1  UNL1        0.0226
      7 C          32.6980    8.2600   13.2550 C.3     1  UNL1        0.0071
      8 C          31.5400    7.2340   13.3630 C.3     1  UNL1        0.0336
      9 C          30.7380    7.1630   12.0210 C.3     1  UNL1        0.1679
     10 C          31.6560    6.7380   10.8160 C.3     1  UNL1        0.0639
     11 C          29.4460    6.3010   12.1480 C.3     1  UNL1        0.1823
     12 C          28.5980    6.6140   13.4100 C.3     1  UNL1        0.0385
     13 C          29.4000    6.5890   14.7300 C.3     1  UNL1        0.0350
     14 C          30.6030    7.5930   14.5310 C.3     1  UNL1        0.0055
     15 C          31.1770    7.7420   15.9520 C.3     1  UNL1        0.0031
     16 C          29.9050    7.6920   16.8540 C.3     1  UNL1        0.0349
     17 C          28.7060    7.2360   15.9650 C.3     1  UNL1        0.1795
     18 C          29.8470    5.1300   15.0690 C.3     1  UNL1        0.0030
     19 C          32.2760    5.3170   10.9020 C.3     1  UNL1        0.0112
     20 C          27.7320    6.2890   16.6730 C.2     1  UNL1        0.2109
     21 C          26.3560    6.0380   16.1030 C.3     1  UNL1        0.2484
     22 C          29.6870    9.0570   17.4980 C.3     1  UNL1        0.0030
     23 F          30.3150    8.4690   11.7490 F       1  UNL1       -0.2368
     24 O          32.5400    9.0250    7.4850 O.2     1  UNL1       -0.2866
     25 O          29.7160    4.8980   12.1090 O.3     1  UNL1       -0.2203
     26 O          27.9490    8.4100   15.6200 O.3     1  UNL1       -0.2181
     27 O          28.0140    5.7240   17.7040 O.2     1  UNL1       -0.2907
     28 O          25.7830    4.8520   16.6370 O.3     1  UNL1       -0.2118
@<TRIPOS>BOND
     1     2     1    2
     2     3     2    1
     3     4     3    1
     4     5     4    2
     5     6     5    1
     6     7     6    1
     7     8     7    1
     8     9     8    1
     9    10     1    1
    10    10     9    1
    11    10     5    1
    12    11     9    1
    13    12    11    1
    14    13    12    1
    15    14    13    1
    16    14     8    1
    17    14    15    1
    18    16    15    1
    19    17    13    1
    20    17    16    1
    21    13    18    1
    22    10    19    1
    23    20    17    1
    24    21    20    1
    25    16    22    1
    26     9    23    1
    27    24     3    2
    28    11    25    1
    29    17    26    1
    30    27    20    2
    31    28    21    1
