@<TRIPOS>MOLECULE
4UDD_CV7_A1782
 34 39 0 0 0
SMALL
GASTEIGER

@<TRIPOS>ATOM
      1 C          29.7490    5.1340   14.9770 C.3     1  UNL1        0.0029
      2 C          29.2650    6.5740   14.6150 C.3     1  UNL1        0.0342
      3 C          28.5190    6.5830   13.2650 C.3     1  UNL1        0.0357
      4 C          29.4440    6.2630   12.0720 C.3     1  UNL1        0.1526
      5 C          30.7310    7.1460   12.0030 C.3     1  UNL1        0.0376
      6 C          31.4830    7.2250   13.3850 C.3     1  UNL1        0.0035
      7 C          30.4420    7.6030   14.4920 C.3     1  UNL1        0.0054
      8 C          30.8630    7.8090   15.9650 C.3     1  UNL1        0.0326
      9 C          29.4910    7.8840   16.7080 C.3     1  UNL1        0.1493
     10 C          28.4400    7.1910   15.7690 C.3     1  UNL1        0.1730
     11 O          27.6440    8.3070   15.2800 O.3     1  UNL1       -0.3257
     12 C          27.7260    9.3090   16.3130 C.3     1  UNL1        0.2352
     13 O          29.1100    9.2750   16.7380 O.3     1  UNL1       -0.3301
     14 C          27.2670   10.6850   15.8170 C.3     1  UNL1        0.0565
     15 C          28.1530   11.2890   14.7180 C.3     1  UNL1        0.0050
     16 C          27.6760   12.7360   14.4540 C.3     1  UNL1        0.0002
     17 C          26.2330   12.6980   13.9250 C.3     1  UNL1        0.0000
     18 C          25.3030   12.0490   14.9690 C.3     1  UNL1        0.0002
     19 C          25.8020   10.6350   15.3410 C.3     1  UNL1        0.0050
     20 C          27.5360    6.1820   16.4620 C.2     1  UNL1        0.2102
     21 O          27.9520    5.5720   17.4150 O.2     1  UNL1       -0.2908
     22 C          26.1250    5.9420   15.9600 C.3     1  UNL1        0.2484
     23 O          25.5610    4.7380   16.5050 O.3     1  UNL1       -0.2118
     24 C          32.5780    8.3200   13.3070 C.3     1  UNL1        0.0045
     25 C          33.5500    8.0810   12.1380 C.3     1  UNL1        0.0224
     26 C          32.7810    7.8060   10.8410 C.2     1  UNL1       -0.0378
     27 C          33.1070    8.5210    9.7650 C.2     1  UNL1        0.0338
     28 C          32.3680    8.3290    8.5020 C.2     1  UNL1        0.1948
     29 O          32.6490    8.9690    7.5160 O.2     1  UNL1       -0.2866
     30 C          31.2530    7.3590    8.4510 C.2     1  UNL1        0.0377
     31 C          30.9530    6.6420    9.5260 C.2     1  UNL1       -0.0197
     32 C          31.7080    6.7480   10.8430 C.3     1  UNL1        0.0362
     33 C          32.4250    5.3720   10.9770 C.3     1  UNL1        0.0085
     34 O          29.6750    4.8510   12.0180 O.3     1  UNL1       -0.2231
@<TRIPOS>BOND
     1     2     1    1
     2     3     2    1
     3     4     3    1
     4     5     4    1
     5     6     5    1
     6     7     6    1
     7     7     2    1
     8     7     8    1
     9     9     8    1
    10    10     2    1
    11    10     9    1
    12    11    10    1
    13    12    11    1
    14    13    12    1
    15    13     9    1
    16    14    12    1
    17    14    15    1
    18    16    15    1
    19    17    16    1
    20    18    17    1
    21    19    18    1
    22    19    14    1
    23    10    20    1
    24    21    20    2
    25    22    20    1
    26    23    22    1
    27     6    24    1
    28    25    24    1
    29    26    25    1
    30    27    26    2
    31    28    27    1
    32    29    28    2
    33    30    28    1
    34    31    30    2
    35    32    31    1
    36    32     5    1
    37    32    26    1
    38    32    33    1
    39     4    34    1
