@<TRIPOS>MOLECULE
5G3J_E7T_A1779
 32 35 0 0 0
SMALL
GASTEIGER

@<TRIPOS>ATOM
      1 C          27.0920    5.3740   17.5710 C.3     1  UNL1        0.0003
      2 C          28.2590    6.2310   17.0880 C.3     1  UNL1        0.0045
      3 C          28.1180    6.3920   15.5690 C.3     1  UNL1        0.0281
      4 C          29.0560    5.3730   14.9130 C.3     1  UNL1        0.0456
      5 C          29.4470    5.7410   13.4680 C.3     1  UNL1        0.2349
      6 O          28.2840    5.8780   12.6450 O.3     1  UNL1       -0.2147
      7 C          30.2250    7.0740   13.5160 C.3     1  UNL1        0.1506
      8 N          30.4490    7.4350   12.1090 N.pl3   1  UNL1       -0.2321
      9 C          31.6670    7.8630   11.6000 C.ar    1  UNL1        0.0671
     10 C          32.6880    8.3420   12.4360 C.ar    1  UNL1        0.0162
     11 C          33.8760    8.8100   11.8870 C.ar    1  UNL1        0.0029
     12 C          34.0510    8.8490   10.5090 C.ar    1  UNL1        0.0193
     13 C          33.0520    8.3830    9.6510 C.ar    1  UNL1        0.0858
     14 N          33.2270    8.4110    8.2780 N.ar    1  UNL1       -0.2078
     15 C          32.2760    7.9300    7.4460 C.ar    1  UNL1        0.2793
     16 O          32.4650    7.9680    6.2320 O.2     1  UNL1       -0.2652
     17 C          31.0700    7.3780    7.9660 C.ar    1  UNL1        0.0626
     18 C          30.8460    7.3490    9.3080 C.ar    1  UNL1        0.0077
     19 C          31.8440    7.8620   10.1920 C.ar    1  UNL1        0.0328
     20 C          29.3460    8.1380   14.1570 C.ar    1  UNL1        0.0015
     21 C          29.4790    9.4600   13.7070 C.ar    1  UNL1        0.0293
     22 C          28.6350   10.4580   14.1700 C.ar    1  UNL1        0.1703
     23 F          28.7520   11.7270   13.7370 F       1  UNL1       -0.2017
     24 C          27.6260   10.1500   15.0620 C.ar    1  UNL1        0.2056
     25 F          26.8130   11.1330   15.4900 F       1  UNL1       -0.1984
     26 C          27.4670    8.8400   15.5090 C.ar    1  UNL1        0.2209
     27 O          26.4640    8.5910   16.3850 O.3     1  UNL1       -0.2844
     28 C          28.3510    7.8210   15.0900 C.ar    1  UNL1        0.0167
     29 C          30.2710    4.5860   12.8730 C.3     1  UNL1        0.4246
     30 F          29.5720    3.3920   13.0570 F       1  UNL1       -0.1674
     31 F          30.4540    4.7530   11.5020 F       1  UNL1       -0.1674
     32 F          31.5230    4.4960   13.4880 F       1  UNL1       -0.1674
@<TRIPOS>BOND
     1     2     1    1
     2     3     2    1
     3     4     3    1
     4     5     4    1
     5     5     6    1
     6     7     5    1
     7     7     8    1
     8     9     8    1
     9    10     9   ar
    10    11    10   ar
    11    12    11   ar
    12    13    12   ar
    13    14    13   ar
    14    15    14   ar
    15    16    15    2
    16    17    15   ar
    17    18    17   ar
    18    19    18   ar
    19    19     9   ar
    20    19    13   ar
    21    20     7    1
    22    21    20   ar
    23    22    21   ar
    24    23    22    1
    25    24    22   ar
    26    25    24    1
    27    26    24   ar
    28    27    26    1
    29    28    26   ar
    30    28    20   ar
    31    28     3    1
    32    29     5    1
    33    29    30    1
    34    31    29    1
    35    32    29    1
