@<TRIPOS>MOLECULE
5UC3_486_A801
 32 36 0 0 0
SMALL
GASTEIGER

@<TRIPOS>ATOM
      1 O          32.4550    8.9990    7.1820 O.2     1  UNL1       -0.2913
      2 C          32.3180    8.3680    8.2160 C.2     1  UNL1        0.1731
      3 C          31.2780    7.2670    8.3600 C.3     1  UNL1        0.0738
      4 C          33.0770    8.6900    9.4180 C.2     1  UNL1        0.0329
      5 C          32.7470    8.2670   10.6550 C.2     1  UNL1       -0.0239
      6 C          33.5580    8.6870   11.8530 C.3     1  UNL1        0.0264
      7 C          31.5580    7.4310   10.8930 C.2     1  UNL1       -0.0332
      8 C          30.6020    7.2870    9.7230 C.3     1  UNL1        0.0335
      9 C          31.2950    6.9060   12.0960 C.2     1  UNL1       -0.0450
     10 C          29.9860    6.1650   12.3580 C.3     1  UNL1        0.0403
     11 C          30.1830    4.6500   12.4120 C.ar    1  UNL1       -0.0187
     12 C          29.1540    3.8130   12.8740 C.ar    1  UNL1       -0.0027
     13 C          29.3190    2.4320   12.9310 C.ar    1  UNL1        0.0142
     14 C          30.5230    1.8150   12.5120 C.ar    1  UNL1        0.0479
     15 N          30.7280    0.4340   12.5540 N.pl3   1  UNL1       -0.3041
     16 C          30.4390   -0.2570   13.8050 C.3     1  UNL1        0.1122
     17 C          31.8460   -0.1010   11.7810 C.3     1  UNL1        0.1122
     18 C          31.5470    2.6680   12.0540 C.ar    1  UNL1        0.0142
     19 C          31.3710    4.0460   12.0100 C.ar    1  UNL1       -0.0027
     20 C          29.2450    6.8060   13.5780 C.3     1  UNL1        0.0117
     21 C          30.1840    7.1150   14.7620 C.3     1  UNL1        0.0374
     22 C          30.5480    5.8210   15.5190 C.3     1  UNL1        0.0035
     23 C          29.6490    8.1220   15.8250 C.3     1  UNL1        0.1788
     24 C          28.9460    9.2690   15.2350 C.1     1  UNL1       -0.0622
     25 C          28.3620   10.2260   14.7950 C.1     1  UNL1       -0.0877
     26 C          27.6530   11.4050   14.2990 C.3     1  UNL1        0.0900
     27 O          28.7430    7.4240   16.6980 O.3     1  UNL1       -0.2125
     28 C          30.9640    8.5860   16.5560 C.3     1  UNL1        0.0430
     29 C          32.1160    8.4260   15.5310 C.3     1  UNL1        0.0040
     30 C          31.4140    7.9010   14.2620 C.3     1  UNL1        0.0071
     31 C          32.2270    7.0530   13.2870 C.3     1  UNL1        0.0187
     32 C          33.6090    7.6250   12.9410 C.3     1  UNL1        0.0087
@<TRIPOS>BOND
     1     2     1    2
     2     3     2    1
     3     4     2    1
     4     5     4    2
     5     6     5    1
     6     7     5    1
     7     8     7    1
     8     8     3    1
     9     9     7    2
    10    10     9    1
    11    10    11    1
    12    12    11   ar
    13    13    12   ar
    14    14    13   ar
    15    15    14    1
    16    16    15    1
    17    17    15    1
    18    18    14   ar
    19    19    18   ar
    20    19    11   ar
    21    20    10    1
    22    21    20    1
    23    21    22    1
    24    23    21    1
    25    24    23    1
    26    25    24    3
    27    26    25    1
    28    23    27    1
    29    28    23    1
    30    29    28    1
    31    30    29    1
    32    30    21    1
    33    31    30    1
    34    31     9    1
    35    31    32    1
    36    32     6    1
