@<TRIPOS>MOLECULE
6DXK_HJ4_A801
 35 39 0 0 0
SMALL
GASTEIGER

@<TRIPOS>ATOM
      1 C          32.5690    8.5640    8.1660 C.2     1  UNL1        0.1731
      2 C          31.2360    7.8680    8.1750 C.3     1  UNL1        0.0738
      3 C          30.9530    7.0460    9.4440 C.3     1  UNL1        0.0335
      4 C          31.6580    7.5480   10.7060 C.2     1  UNL1       -0.0332
      5 C          31.1540    7.3600   11.9880 C.2     1  UNL1       -0.0450
      6 C          29.8670    6.5860   12.2470 C.3     1  UNL1        0.0403
      7 C          29.1750    2.8400   12.0290 C.ar    1  UNL1        0.0142
      8 C          30.4470    2.2440   11.9950 C.ar    1  UNL1        0.0479
      9 N          30.5990    0.8420   11.9430 N.pl3   1  UNL1       -0.3041
     10 C          31.5310    0.1530   12.8550 C.3     1  UNL1        0.1122
     11 C          31.5560    3.0950   12.0530 C.ar    1  UNL1        0.0142
     12 C          31.4080    4.4710   12.1260 C.ar    1  UNL1       -0.0027
     13 C          29.1450    6.9840   13.5750 C.3     1  UNL1        0.0117
     14 C          30.0690    7.0900   14.8170 C.3     1  UNL1        0.0374
     15 C          31.1580    8.1410   14.4190 C.3     1  UNL1        0.0071
     16 C          30.8150    8.2220   16.8150 C.3     1  UNL1        0.0430
     17 C          29.5150    7.7620   16.1130 C.3     1  UNL1        0.1788
     18 C          27.1170   11.1080   15.5960 C.3     1  UNL1        0.0541
     19 C          27.4570   11.8280   14.2850 C.3     1  UNL1        0.0130
     20 C          31.9560    7.8500   13.1820 C.3     1  UNL1        0.0187
     21 C          33.0220    8.9170   12.8860 C.3     1  UNL1        0.0087
     22 C          33.8790    8.4510   11.7020 C.3     1  UNL1        0.0264
     23 C          32.9500    8.2420   10.5300 C.2     1  UNL1       -0.0239
     24 C          33.3480    8.7080    9.3120 C.2     1  UNL1        0.0329
     25 O          32.9890    9.0040    7.1180 O.2     1  UNL1       -0.2913
     26 C          30.1340    5.0750   12.1400 C.ar    1  UNL1       -0.0187
     27 C          29.0330    4.2230   12.1020 C.ar    1  UNL1       -0.0027
     28 C          29.7740    0.0130   11.0580 C.3     1  UNL1        0.1122
     29 C          30.6200    5.6760   15.1690 C.3     1  UNL1        0.0035
     30 C          31.9240    8.2750   15.7370 C.3     1  UNL1        0.0040
     31 C          28.6250    8.9410   15.9260 C.1     1  UNL1       -0.0623
     32 C          27.9180    9.8770   15.7470 C.1     1  UNL1       -0.0907
     33 C          25.6530   10.7250   15.5160 C.3     1  UNL1        0.0130
     34 C          27.3100   12.0340   16.8000 C.3     1  UNL1        0.0130
     35 O          28.8330    6.8510   16.9800 O.3     1  UNL1       -0.2125
@<TRIPOS>BOND
     1     2     1    1
     2     3     2    1
     3     4     3    1
     4     5     4    2
     5     6     5    1
     6     8     7   ar
     7     9     8    1
     8    10     9    1
     9    11     8   ar
    10    12    11   ar
    11    13     6    1
    12    14    13    1
    13    15    14    1
    14    17    14    1
    15    17    16    1
    16    18    19    1
    17    20    15    1
    18    20     5    1
    19    20    21    1
    20    22    21    1
    21    23     4    1
    22    23    22    1
    23    24     1    1
    24    24    23    2
    25    25     1    2
    26    26    12   ar
    27     6    26    1
    28    27    26   ar
    29    27     7   ar
    30    28     9    1
    31    14    29    1
    32    15    30    1
    33    30    16    1
    34    31    17    1
    35    32    18    1
    36    32    31    3
    37    33    18    1
    38    34    18    1
    39    17    35    1
