@<TRIPOS>MOLECULE
6EL6_B9Q_A802
 34 38 0 0 0
SMALL
GASTEIGER

@<TRIPOS>ATOM
      1 C          30.5410    3.7900   13.6650 C.3     1  UNL1        0.0276
      2 C          30.1500    5.1760   14.1050 C.3     1  UNL1        0.1395
      3 C          30.3950    8.4500   13.9590 C.ar    1  UNL1        0.0056
      4 C          29.8640    9.6670   14.3250 C.ar    1  UNL1        0.0575
      5 C          28.5260    9.8960   14.0760 C.ar    1  UNL1        0.2250
      6 C          28.2500    7.8240   13.1600 C.ar    1  UNL1        0.1013
      7 C          26.6730   11.1820   14.5990 C.3     1  UNL1        0.2542
      8 C          31.6510    6.8030   11.2170 C.ar    1  UNL1        0.1391
      9 C          32.7620    7.6070   11.0440 C.ar    1  UNL1        0.0385
     10 C          31.1180    7.0940    8.9470 C.ar    1  UNL1        0.0416
     11 C          30.8020    6.5120   10.1680 C.ar    1  UNL1        0.0400
     12 C          30.5220    7.0720    7.6630 C.ar    1  UNL1        0.1221
     13 N          32.2440    8.2720    7.4740 N.ar    1  UNL1       -0.2296
     14 C          33.2960    8.8790    6.7600 C.ar    1  UNL1        0.0829
     15 C          35.2530   10.0970    5.2920 C.ar    1  UNL1        0.1402
     16 C          28.7730    5.8770   15.9970 C.2     1  UNL1        0.2410
     17 C          27.3750    5.9160   16.4580 C.3     1  UNL1        0.0782
     18 C          27.0570    6.1870   17.8970 C.3     1  UNL1        0.0096
     19 C          30.1190    6.1590   12.9460 C.3     1  UNL1        0.2093
     20 C          29.5820    7.5040   13.3610 C.ar    1  UNL1        0.0383
     21 N          27.6970    8.9990   13.4990 N.ar    1  UNL1       -0.2104
     22 O          28.0890   11.1670   14.4690 O.3     1  UNL1       -0.4561
     23 O          31.4800    6.2790   12.5020 O.3     1  UNL1       -0.4729
     24 C          33.0980    8.1870    9.8390 C.ar    1  UNL1        0.0223
     25 C          32.2350    7.8970    8.8000 C.ar    1  UNL1        0.0845
     26 N          31.2030    7.7910    6.7720 N.ar    1  UNL1       -0.1635
     27 C          34.6110    8.4930    6.9410 C.ar    1  UNL1        0.0215
     28 C          35.5950    9.1180    6.2040 C.ar    1  UNL1        0.0312
     29 C          33.9470   10.4830    5.1060 C.ar    1  UNL1        0.0312
     30 C          32.9660    9.8640    5.8520 C.ar    1  UNL1        0.0215
     31 F          36.2100   10.6980    4.5750 F       1  UNL1       -0.2042
     32 N          28.9180    5.1090   14.8630 N.am    1  UNL1       -0.2031
     33 O          29.6630    6.5100   16.5580 O.2     1  UNL1       -0.2734
     34 C          26.7620    7.2280   16.8630 C.3     1  UNL1        0.0096
@<TRIPOS>BOND
     1     2     1    1
     2     4     3   ar
     3     5     4   ar
     4     9     8   ar
     5    11    10   ar
     6    11     8   ar
     7    12    10   ar
     8    14    13    1
     9    17    16    1
    10    18    17    1
    11    19     2    1
    12    20    19    1
    13    20     6   ar
    14    20     3   ar
    15    21     6   ar
    16    21     5   ar
    17    22     7    1
    18    22     5    1
    19    19    23    1
    20    23     8    1
    21    24     9   ar
    22    25    13   ar
    23    25    10   ar
    24    25    24   ar
    25    26    13   ar
    26    26    12   ar
    27    27    14   ar
    28    28    15   ar
    29    28    27   ar
    30    29    15   ar
    31    30    29   ar
    32    30    14   ar
    33    31    15    1
    34    32     2    1
    35    32    16   am
    36    33    16    2
    37    34    18    1
    38    34    17    1
