@<TRIPOS>MOLECULE
7KRJ_DEX_D801
 29 32 0 0 0
SMALL
GASTEIGER

@<TRIPOS>ATOM
      1  C1        30.7070    6.8220    9.0770 C.2   801  DEX801     -0.0171
      2  C2        30.9470    7.5620    7.9730 C.2   801  DEX801      0.0378
      3  C3        32.1150    8.5520    8.0070 C.2   801  DEX801      0.1948
      4  C4        32.9610    8.6810    9.2730 C.2   801  DEX801      0.0339
      5  C5        32.6700    7.9110   10.3480 C.2   801  DEX801     -0.0354
      6  C6        33.5300    8.1030   11.5770 C.3   801  DEX801      0.0226
      7  C7        32.6810    8.3110   12.8420 C.3   801  DEX801      0.0068
      8  C8        31.4080    7.4480   12.9640 C.3   801  DEX801      0.0299
      9  C9        30.5980    7.1840   11.6380 C.3   801  DEX801      0.1676
     10  C10       31.5100    6.8750   10.3940 C.3   801  DEX801      0.0639
     11  C11       29.3160    6.3310   11.8290 C.3   801  DEX801      0.1823
     12  C12       28.5520    6.4640   13.1650 C.3   801  DEX801      0.0382
     13  C13       29.4460    6.5950   14.4300 C.3   801  DEX801      0.0316
     14  C14       30.5230    7.7030   14.2120 C.3   801  DEX801     -0.0137
     15  C15       31.0950    7.9860   15.6010 C.3   801  DEX801     -0.0009
     16  C16       29.9080    7.7790   16.5350 C.3   801  DEX801      0.0346
     17  C17       28.7530    7.2170   15.6760 C.3   801  DEX801      0.1792
     18  C18       30.0280    5.1870   14.7180 C.3   801  DEX801      0.0027
     19  C19       32.1810    5.5030   10.4280 C.3   801  DEX801      0.0112
     20  C20       27.7820    6.2890   16.4490 C.2   801  DEX801      0.2109
     21  C21       26.3860    5.9330   15.9180 C.3   801  DEX801      0.2484
     22  C22       29.6660    9.0290   17.3790 C.3   801  DEX801      0.0030
     23  F1        30.0040    8.3950   11.3670 F     801  DEX801     -0.2368
     24  O1        32.3730    9.2360    7.0230 O.2   801  DEX801     -0.2866
     25  O2        29.6100    4.9560   11.6810 O.3   801  DEX801     -0.2203
     26  O3        27.9890    8.3540   15.2520 O.3   801  DEX801     -0.2181
     27  O4        28.1420    5.7730   17.5120 O.2   801  DEX801     -0.2907
     28  O5        25.8080    4.7690   16.5240 O.3   801  DEX801     -0.2118
     29  H14       30.0370    8.6720   13.9230 H     801  DEX801      0.0320
@<TRIPOS>BOND
     1    24     3    2
     2     2     3    1
     3     2     1    2
     4     3     4    1
     5     1    10    1
     6     4     5    2
     7     5    10    1
     8     5     6    1
     9    10    19    1
    10    10     9    1
    11    23     9    1
    12     6     7    1
    13     9    11    1
    14     9     8    1
    15    25    11    1
    16    11    12    1
    17     7     8    1
    18     8    14    1
    19    12    13    1
    20    29    14    1
    21    14    13    1
    22    14    15    1
    23    13    18    1
    24    13    17    1
    25    26    17    1
    26    15    16    1
    27    17    20    1
    28    17    16    1
    29    21    20    1
    30    21    28    1
    31    20    27    2
    32    16    22    1
