@<TRIPOS>MOLECULE
7KRJ_DEX_D801
 29 32 0 0 0
SMALL
GASTEIGER

@<TRIPOS>ATOM
      1  C1        30.7370    6.8320    8.9800 C.2   801  DEX801     -0.0171
      2  C2        30.9750    7.5740    7.8770 C.2   801  DEX801      0.0378
      3  C3        32.1400    8.5680    7.9140 C.2   801  DEX801      0.1948
      4  C4        32.9830    8.7000    9.1820 C.2   801  DEX801      0.0339
      5  C5        32.6930    7.9280   10.2550 C.2   801  DEX801     -0.0354
      6  C6        33.5500    8.1230   11.4860 C.3   801  DEX801      0.0226
      7  C7        32.6980    8.3270   12.7490 C.3   801  DEX801      0.0068
      8  C8        31.4280    7.4590   12.8690 C.3   801  DEX801      0.0299
      9  C9        30.6210    7.1930   11.5410 C.3   801  DEX801      0.1676
     10  C10       31.5370    6.8880   10.2990 C.3   801  DEX801      0.0639
     11  C11       29.3420    6.3360   11.7300 C.3   801  DEX801      0.1823
     12  C12       28.5750    6.4650   13.0640 C.3   801  DEX801      0.0382
     13  C13       29.4660    6.5990   14.3310 C.3   801  DEX801      0.0316
     14  C14       30.5390    7.7110   14.1150 C.3   801  DEX801     -0.0137
     15  C15       31.1080    7.9960   15.5050 C.3   801  DEX801     -0.0009
     16  C16       29.9190    7.7830   16.4370 C.3   801  DEX801      0.0346
     17  C17       28.7680    7.2180   15.5750 C.3   801  DEX801      0.1792
     18  C18       30.0520    5.1920   14.6190 C.3   801  DEX801      0.0027
     19  C19       32.2130    5.5180   10.3330 C.3   801  DEX801      0.0112
     20  C20       27.7990    6.2860   16.3460 C.2   801  DEX801      0.2109
     21  C21       26.4050    5.9240   15.8120 C.3   801  DEX801      0.2484
     22  C22       29.6710    9.0320   17.2820 C.3   801  DEX801      0.0030
     23  F1        30.0230    8.4020   11.2690 F     801  DEX801     -0.2368
     24  O1        32.3970    9.2540    6.9310 O.2   801  DEX801     -0.2866
     25  O2        29.6410    4.9620   11.5810 O.3   801  DEX801     -0.2203
     26  O3        28.0010    8.3520   15.1500 O.3   801  DEX801     -0.2181
     27  O4        28.1590    5.7700   17.4100 O.2   801  DEX801     -0.2907
     28  O5        25.8310    4.7580   16.4170 O.3   801  DEX801     -0.2118
     29  H14       30.0500    8.6780   13.8260 H     801  DEX801      0.0320
@<TRIPOS>BOND
     1    24     3    2
     2     2     3    1
     3     2     1    2
     4     3     4    1
     5     1    10    1
     6     4     5    2
     7     5    10    1
     8     5     6    1
     9    10    19    1
    10    10     9    1
    11    23     9    1
    12     6     7    1
    13     9    11    1
    14     9     8    1
    15    25    11    1
    16    11    12    1
    17     7     8    1
    18     8    14    1
    19    12    13    1
    20    29    14    1
    21    14    13    1
    22    14    15    1
    23    13    18    1
    24    13    17    1
    25    26    17    1
    26    15    16    1
    27    17    20    1
    28    17    16    1
    29    21    20    1
    30    21    28    1
    31    20    27    2
    32    16    22    1
