@<TRIPOS>MOLECULE
7PRW_82H_B806
 44 49 0 0 0
SMALL
GASTEIGER

@<TRIPOS>ATOM
      1 C          34.7460   10.0010    5.2190 C.ar    1  UNL1        0.0017
      2 C          35.7990    9.1170    4.9760 C.ar    1  UNL1        0.0047
      3 C          27.9250    7.2830   12.8450 C.ar    1  UNL1        0.0026
      4 C          32.9060    7.4220   11.0120 C.ar    1  UNL1        0.0385
      5 C          30.7640    6.6340   10.1540 C.ar    1  UNL1        0.0400
      6 C          34.6840    7.4540    6.3380 C.ar    1  UNL1        0.0237
      7 C          29.8290    8.4670   13.7510 C.ar    1  UNL1        0.0393
      8 C          30.5770    7.0930    7.5950 C.ar    1  UNL1        0.1221
      9 C          31.1600    7.0740    8.8790 C.ar    1  UNL1        0.0416
     10 C          35.7710    7.8440    5.5440 C.ar    1  UNL1        0.0565
     11 C          29.2870    7.3290   13.1420 C.ar    1  UNL1        0.0221
     12 C          32.4050    7.6710    8.6930 C.ar    1  UNL1        0.0845
     13 C          33.6180    8.3360    6.5840 C.ar    1  UNL1        0.0829
     14 C          31.6620    6.8230   11.2190 C.ar    1  UNL1        0.1391
     15 C          36.8850    6.9030    5.2880 C.2     1  UNL1        0.2649
     16 C          28.8560    5.7210   16.0710 C.2     1  UNL1        0.3026
     17 C          38.3000    4.6800    3.7010 C.3     1  UNL1        0.0563
     18 C          27.1730   11.3170   15.1650 C.3     1  UNL1        0.2526
     19 C          38.5050    6.1650    3.4930 C.3     1  UNL1        0.1276
     20 C          30.0880    6.1180   12.8170 C.3     1  UNL1        0.2079
     21 C          30.1810    5.2800   14.0720 C.3     1  UNL1        0.1396
     22 C          27.4770    5.8500   16.6550 C.3     1  UNL1        0.3321
     23 C          33.2980    7.8630    9.7490 C.ar    1  UNL1        0.0223
     24 C          33.6640    9.6140    6.0130 C.ar    1  UNL1        0.0192
     25 C          27.0690    8.3320   13.1680 C.ar    1  UNL1        0.0398
     26 C          27.5920    9.4600   13.7900 C.ar    1  UNL1        0.1724
     27 C          28.9730    9.5370   14.0550 C.ar    1  UNL1        0.1722
     28 C          39.5200    4.2390    4.4820 C.3     1  UNL1        0.1441
     29 C          28.6190   11.7450   14.9240 C.3     1  UNL1        0.2526
     30 C          39.9020    6.4100    4.0410 C.3     1  UNL1        0.1637
     31 C          30.7690    3.9410   13.7220 C.3     1  UNL1        0.0276
     32 C          26.9100    7.2330   16.4210 C.3     1  UNL1        0.0822
     33 N          31.3770    7.6440    6.6760 N.ar    1  UNL1       -0.1635
     34 N          32.4870    7.9750    7.3540 N.ar    1  UNL1       -0.2296
     35 N          37.4690    7.0300    4.0340 N.am    1  UNL1       -0.2008
     36 N          28.9470    5.1430   14.8230 N.am    1  UNL1       -0.1986
     37 O          37.2060    6.1190    6.1730 O.2     1  UNL1       -0.2684
     38 O          29.8270    6.1220   16.6880 O.2     1  UNL1       -0.2674
     39 O          26.7000   10.4720   14.0990 O.3     1  UNL1       -0.4684
     40 O          29.5220   10.6400   14.6790 O.3     1  UNL1       -0.4684
     41 O          40.5580    5.1360    4.1070 O.3     1  UNL1       -0.3519
     42 O          31.4320    6.4530   12.5400 O.3     1  UNL1       -0.4730
     43 F          26.6180    4.8910   16.1990 F       1  UNL1       -0.1945
     44 F          27.5440    5.7030   18.0040 F       1  UNL1       -0.1945
@<TRIPOS>BOND
     1     2     1   ar
     2     9     8   ar
     3     9     5   ar
     4    10     2   ar
     5    10     6   ar
     6    11     7   ar
     7    11     3   ar
     8    12     9   ar
     9    13     6   ar
    10    14     5   ar
    11    14     4   ar
    12    15    10    1
    13    19    17    1
    14    20    11    1
    15    21    20    1
    16    22    16    1
    17    23    12   ar
    18    23     4   ar
    19    24     1   ar
    20    24    13   ar
    21    25     3   ar
    22    26    25   ar
    23    27    26   ar
    24    27     7   ar
    25    28    17    1
    26    29    18    1
    27    30    19    1
    28    21    31    1
    29    22    32    1
    30    33     8   ar
    31    34    33   ar
    32    34    12   ar
    33    34    13    1
    34    35    15   am
    35    19    35    1
    36    36    21    1
    37    36    16   am
    38    37    15    2
    39    38    16    2
    40    39    18    1
    41    39    26    1
    42    40    27    1
    43    40    29    1
    44    41    28    1
    45    41    30    1
    46    20    42    1
    47    42    14    1
    48    43    22    1
    49    44    22    1
