@<TRIPOS>MOLECULE
7PRW_82H_B806
 44 49 0 0 0
SMALL
GASTEIGER

@<TRIPOS>ATOM
      1 C          34.7620   10.0700    5.2120 C.ar    1  UNL1        0.0017
      2 C          35.8110    9.1810    4.9730 C.ar    1  UNL1        0.0047
      3 C          27.8990    7.3910   12.8150 C.ar    1  UNL1        0.0026
      4 C          32.8880    7.5040   11.0000 C.ar    1  UNL1        0.0385
      5 C          30.7450    6.7260   10.1350 C.ar    1  UNL1        0.0400
      6 C          34.6830    7.5250    6.3330 C.ar    1  UNL1        0.0237
      7 C          29.8060    8.5660   13.7270 C.ar    1  UNL1        0.0393
      8 C          30.5700    7.1840    7.5740 C.ar    1  UNL1        0.1221
      9 C          31.1470    7.1630    8.8600 C.ar    1  UNL1        0.0416
     10 C          35.7740    7.9080    5.5420 C.ar    1  UNL1        0.0565
     11 C          29.2610    7.4300   13.1170 C.ar    1  UNL1        0.0221
     12 C          32.3970    7.7540    8.6790 C.ar    1  UNL1        0.0845
     13 C          33.6200    8.4120    6.5740 C.ar    1  UNL1        0.0829
     14 C          31.6400    6.9120   11.2030 C.ar    1  UNL1        0.1391
     15 C          36.8850    6.9620    5.2900 C.2     1  UNL1        0.2649
     16 C          28.8110    5.8260   16.0450 C.2     1  UNL1        0.3026
     17 C          38.2950    4.7310    3.7110 C.3     1  UNL1        0.0563
     18 C          27.1590   11.4300   15.1290 C.3     1  UNL1        0.2526
     19 C          38.5080    6.2150    3.5020 C.3     1  UNL1        0.1276
     20 C          30.0570    6.2150   12.7960 C.3     1  UNL1        0.2079
     21 C          30.1410    5.3780   14.0520 C.3     1  UNL1        0.1396
     22 C          27.4310    5.9620   16.6240 C.3     1  UNL1        0.3321
     23 C          33.2860    7.9430    9.7380 C.ar    1  UNL1        0.0223
     24 C          33.6740    9.6900    6.0020 C.ar    1  UNL1        0.0192
     25 C          27.0480    8.4450   13.1340 C.ar    1  UNL1        0.0398
     26 C          27.5740    9.5700   13.7570 C.ar    1  UNL1        0.1724
     27 C          28.9540    9.6400   14.0270 C.ar    1  UNL1        0.1722
     28 C          39.5100    4.2850    4.4960 C.3     1  UNL1        0.1441
     29 C          28.6080   11.8510   14.8930 C.3     1  UNL1        0.2526
     30 C          39.9040    6.4530    4.0550 C.3     1  UNL1        0.1637
     31 C          30.7240    4.0350   13.7040 C.3     1  UNL1        0.0276
     32 C          26.8720    7.3490   16.3880 C.3     1  UNL1        0.0822
     33 N          31.3760    7.7310    6.6580 N.ar    1  UNL1       -0.1635
     34 N          32.4850    8.0570    7.3400 N.ar    1  UNL1       -0.2296
     35 N          37.4750    7.0850    4.0390 N.am    1  UNL1       -0.2008
     36 N          28.9040    5.2480   14.7980 N.am    1  UNL1       -0.1986
     37 O          37.1990    6.1770    6.1780 O.2     1  UNL1       -0.2684
     38 O          29.7810    6.2230   16.6660 O.2     1  UNL1       -0.2674
     39 O          26.6860   10.5870   14.0620 O.3     1  UNL1       -0.4684
     40 O          29.5060   10.7410   14.6520 O.3     1  UNL1       -0.4684
     41 O          40.5530    5.1770    4.1240 O.3     1  UNL1       -0.3519
     42 O          31.4040    6.5440   12.5230 O.3     1  UNL1       -0.4730
     43 F          26.5690    5.0080   16.1660 F       1  UNL1       -0.1945
     44 F          27.4920    5.8170   17.9740 F       1  UNL1       -0.1945
@<TRIPOS>BOND
     1     2     1   ar
     2     9     8   ar
     3     9     5   ar
     4    10     2   ar
     5    10     6   ar
     6    11     7   ar
     7    11     3   ar
     8    12     9   ar
     9    13     6   ar
    10    14     5   ar
    11    14     4   ar
    12    15    10    1
    13    19    17    1
    14    20    11    1
    15    21    20    1
    16    22    16    1
    17    23    12   ar
    18    23     4   ar
    19    24     1   ar
    20    24    13   ar
    21    25     3   ar
    22    26    25   ar
    23    27    26   ar
    24    27     7   ar
    25    28    17    1
    26    29    18    1
    27    30    19    1
    28    21    31    1
    29    22    32    1
    30    33     8   ar
    31    34    33   ar
    32    34    12   ar
    33    34    13    1
    34    35    15   am
    35    19    35    1
    36    36    21    1
    37    36    16   am
    38    37    15    2
    39    38    16    2
    40    39    18    1
    41    39    26    1
    42    40    27    1
    43    40    29    1
    44    41    28    1
    45    41    30    1
    46    20    42    1
    47    42    14    1
    48    43    22    1
    49    44    22    1
