@<TRIPOS>MOLECULE
8FFV_DEX_C801
 29 32 0 0 0
SMALL
GASTEIGER

@<TRIPOS>ATOM
      1  C1        30.7550    6.9090    9.1090 C.2   801  DEX801     -0.0171
      2  C2        30.9400    7.6010    7.9590 C.2   801  DEX801      0.0378
      3  C3        32.0810    8.6260    7.8990 C.2   801  DEX801      0.1948
      4  C4        32.9540    8.8600    9.1390 C.2   801  DEX801      0.0339
      5  C5        32.7190    8.1370   10.2660 C.2   801  DEX801     -0.0354
      6  C6        33.6040    8.4420   11.4620 C.3   801  DEX801      0.0226
      7  C7        32.7580    8.6900   12.7320 C.3   801  DEX801      0.0068
      8  C8        31.5540    7.7310   12.9680 C.3   801  DEX801      0.0299
      9  C9        30.7090    7.3200   11.6920 C.3   801  DEX801      0.1676
     10  C10       31.6020    7.0420   10.4010 C.3   801  DEX801      0.0639
     11  C11       29.5540    6.3130   12.0230 C.3   801  DEX801      0.1823
     12  C12       28.8140    6.4620   13.3920 C.3   801  DEX801      0.0382
     13  C13       29.7120    6.8000   14.6350 C.3   801  DEX801      0.0316
     14  C14       30.6980    7.9750   14.2550 C.3   801  DEX801     -0.0137
     15  C15       31.2990    8.4290   15.5910 C.3   801  DEX801     -0.0009
     16  C16       30.1060    8.3770   16.5480 C.3   801  DEX801      0.0346
     17  C17       29.0020    7.5170   15.8600 C.3   801  DEX801      0.1792
     18  C18       30.3940    5.4650   15.0400 C.3   801  DEX801      0.0027
     19  C19       32.3550    5.6990   10.4340 C.3   801  DEX801      0.0112
     20  C20       28.1840    6.6680   16.8930 C.2   801  DEX801      0.2109
     21  C21       26.9000    5.9180   16.5250 C.3   801  DEX801      0.2484
     22  C22       29.7610    9.7930   17.0300 C.3   801  DEX801      0.0030
     23  F1        29.9610    8.4480   11.3900 F     801  DEX801     -0.2368
     24  O1        32.2860    9.2630    6.8650 O.2   801  DEX801     -0.2866
     25  O2        30.0560    4.9820   11.9780 O.3   801  DEX801     -0.2203
     26  O3        28.0560    8.4580   15.3180 O.3   801  DEX801     -0.2181
     27  O4        28.5330    6.5930   18.0830 O.2   801  DEX801     -0.2907
     28  O5        27.0570    4.5000   16.4560 O.3   801  DEX801     -0.2118
     29  H14       30.1090    8.8670   13.9160 H     801  DEX801      0.0320
@<TRIPOS>BOND
     1    24     3    2
     2     3     2    1
     3     3     4    1
     4     2     1    2
     5     1    10    1
     6     4     5    2
     7     5    10    1
     8     5     6    1
     9    10    19    1
    10    10     9    1
    11    23     9    1
    12     6     7    1
    13     9    11    1
    14     9     8    1
    15    25    11    1
    16    11    12    1
    17     7     8    1
    18     8    14    1
    19    12    13    1
    20    29    14    1
    21    14    13    1
    22    14    15    1
    23    13    18    1
    24    13    17    1
    25    26    17    1
    26    15    16    1
    27    17    16    1
    28    17    20    1
    29    28    21    1
    30    21    20    1
    31    16    22    1
    32    20    27    2
