STL545808
     RDKit          3D

 62 64  0  0  0  0  0  0  0  0999 V2000
    1.5655   -1.0100   -3.0564 O   0  0  0  0  0  0  0  0  0  0  0  0
    2.2097   -1.2080   -1.8604 C   0  0  0  0  0  0  0  0  0  0  0  0
    2.9220   -2.4529   -1.8160 C   0  0  0  0  0  0  0  0  0  0  0  0
    3.5657   -2.8521   -0.7094 C   0  0  0  0  0  0  0  0  0  0  0  0
    4.3129   -4.1567   -0.6948 C   0  0  0  0  0  0  0  0  0  0  0  0
    3.5427   -2.0368    0.4217 N   0  0  0  0  0  0  0  0  0  0  0  0
    4.2539   -2.4051    1.6517 C   0  0  0  0  0  0  0  0  0  0  0  0
    5.6819   -1.8844    1.7337 C   0  0  0  0  0  0  0  0  0  0  0  0
    6.4430   -2.0772    2.6723 O   0  0  0  0  0  0  0  0  0  0  0  0
    6.1073   -1.1807    0.6661 O   0  0  0  0  0  0  0  0  0  0  0  0
    2.9190   -0.7848    0.4288 C   0  0  0  0  0  0  0  0  0  0  0  0
    2.9373   -0.0431    1.4126 O   0  0  0  0  0  0  0  0  0  0  0  0
    2.1985   -0.3509   -0.8240 C   0  0  0  0  0  0  0  0  0  0  0  0
    1.5991    1.0522   -0.7772 C   0  0  0  0  0  0  0  0  0  0  0  0
    1.7769    1.8689   -2.0730 C   0  0  0  0  0  0  0  0  0  0  0  0
    1.5556    3.3352   -1.8061 C   0  0  0  0  0  0  0  0  0  0  0  0
    0.4805    3.9041   -1.9363 O   0  0  0  0  0  0  0  0  0  0  0  0
    2.7071    3.9200   -1.3757 O   0  0  0  0  0  0  0  0  0  0  0  0
    2.5764    5.3112   -1.0805 C   0  0  0  0  0  0  0  0  0  0  0  0
    0.1757    1.0393   -0.2299 C   0  0  0  0  0  0  0  0  0  0  0  0
   -0.9254    0.4987   -1.0852 C   0  0  0  0  0  0  0  0  0  0  0  0
   -0.6422    0.0564   -2.2014 O   0  0  0  0  0  0  0  0  0  0  0  0
   -2.2218    0.4991   -0.5761 N   0  0  0  0  0  0  0  0  0  0  0  0
   -3.2849   -0.0475   -1.4238 C   0  0  0  0  0  0  0  0  0  0  0  0
   -3.6627   -1.5045   -1.0822 C   0  0  0  0  0  0  0  0  0  0  0  0
   -4.9032   -1.9156   -1.8781 C   0  0  0  0  0  0  0  0  0  0  0  0
   -2.5197   -2.4820   -1.3635 C   0  0  0  0  0  0  0  0  0  0  0  0
   -0.1063    1.4955    1.0002 C   0  0  0  0  0  0  0  0  0  0  0  0
   -1.4658    1.4850    1.5233 C   0  0  0  0  0  0  0  0  0  0  0  0
   -2.5155    0.9911    0.7349 C   0  0  0  0  0  0  0  0  0  0  0  0
   -1.7122    1.9708    2.8157 C   0  0  0  0  0  0  0  0  0  0  0  0
   -3.0051    1.9715    3.3329 C   0  0  0  0  0  0  0  0  0  0  0  0
   -4.0545    1.4874    2.5606 C   0  0  0  0  0  0  0  0  0  0  0  0
   -3.8123    1.0012    1.2716 C   0  0  0  0  0  0  0  0  0  0  0  0
    0.7055   -0.5666   -2.8703 H   0  0  0  0  0  0  0  0  0  0  0  0
    2.9195   -3.0569   -2.7190 H   0  0  0  0  0  0  0  0  0  0  0  0
    3.8584   -4.8553    0.0149 H   0  0  0  0  0  0  0  0  0  0  0  0
    5.3627   -4.0035   -0.4250 H   0  0  0  0  0  0  0  0  0  0  0  0
    4.3032   -4.6437   -1.6765 H   0  0  0  0  0  0  0  0  0  0  0  0
    4.2715   -3.4923    1.7678 H   0  0  0  0  0  0  0  0  0  0  0  0
    3.7132   -1.9977    2.5138 H   0  0  0  0  0  0  0  0  0  0  0  0
    7.0164   -0.9057    0.9036 H   0  0  0  0  0  0  0  0  0  0  0  0
    2.2076    1.6143   -0.0527 H   0  0  0  0  0  0  0  0  0  0  0  0
    2.7898    1.7461   -2.4784 H   0  0  0  0  0  0  0  0  0  0  0  0
    1.0980    1.5836   -2.8810 H   0  0  0  0  0  0  0  0  0  0  0  0
    2.2779    5.8670   -1.9749 H   0  0  0  0  0  0  0  0  0  0  0  0
    1.8575    5.4644   -0.2696 H   0  0  0  0  0  0  0  0  0  0  0  0
    3.5519    5.6810   -0.7529 H   0  0  0  0  0  0  0  0  0  0  0  0
   -4.1575    0.6137   -1.3662 H   0  0  0  0  0  0  0  0  0  0  0  0
   -2.9731    0.0010   -2.4751 H   0  0  0  0  0  0  0  0  0  0  0  0
   -3.9093   -1.5814   -0.0169 H   0  0  0  0  0  0  0  0  0  0  0  0
   -4.7161   -1.8733   -2.9566 H   0  0  0  0  0  0  0  0  0  0  0  0
   -5.2065   -2.9375   -1.6266 H   0  0  0  0  0  0  0  0  0  0  0  0
   -5.7461   -1.2536   -1.6531 H   0  0  0  0  0  0  0  0  0  0  0  0
   -2.8315   -3.5119   -1.1585 H   0  0  0  0  0  0  0  0  0  0  0  0
   -1.6537   -2.2728   -0.7278 H   0  0  0  0  0  0  0  0  0  0  0  0
   -2.1988   -2.4299   -2.4093 H   0  0  0  0  0  0  0  0  0  0  0  0
    0.6798    1.8775    1.6457 H   0  0  0  0  0  0  0  0  0  0  0  0
   -0.8984    2.3518    3.4286 H   0  0  0  0  0  0  0  0  0  0  0  0
   -3.1918    2.3492    4.3348 H   0  0  0  0  0  0  0  0  0  0  0  0
   -5.0663    1.4863    2.9588 H   0  0  0  0  0  0  0  0  0  0  0  0
   -4.6670    0.6338    0.7139 H   0  0  0  0  0  0  0  0  0  0  0  0
  1  2  1  0
  2  3  1  0
  3  4  2  0
  4  5  1  0
  4  6  1  0
  6  7  1  0
  7  8  1  0
  8  9  2  0
  8 10  1  0
  6 11  1  0
 11 12  2  0
 11 13  1  0
 13 14  1  0
 14 15  1  0
 15 16  1  0
 16 17  2  0
 16 18  1  0
 18 19  1  0
 14 20  1  0
 20 21  1  0
 21 22  2  0
 21 23  1  0
 23 24  1  0
 24 25  1  0
 25 26  1  0
 25 27  1  0
 20 28  2  0
 28 29  1  0
 29 30  2  0
 29 31  1  0
 31 32  2  0
 32 33  1  0
 33 34  2  0
 13  2  2  0
 30 23  1  0
 34 30  1  0
  1 35  1  0
  3 36  1  0
  5 37  1  0
  5 38  1  0
  5 39  1  0
  7 40  1  0
  7 41  1  0
 10 42  1  0
 14 43  1  0
 15 44  1  0
 15 45  1  0
 19 46  1  0
 19 47  1  0
 19 48  1  0
 24 49  1  0
 24 50  1  0
 25 51  1  0
 26 52  1  0
 26 53  1  0
 26 54  1  0
 27 55  1  0
 27 56  1  0
 27 57  1  0
 28 58  1  0
 31 59  1  0
 32 60  1  0
 33 61  1  0
 34 62  1  0
M  END
>  <mol_id>  (1) 
STL545808

>  <drugclip_rank>  (1) 
1

>  <conformer>  (1) 
0

>  <align_rmsd>  (1) 
0.9

$$$$
STL541517
     RDKit          3D

 66 68  0  0  0  0  0  0  0  0999 V2000
    1.5573   -1.6368   -2.9498 O   0  0  0  0  0  0  0  0  0  0  0  0
    2.2728   -1.6483   -1.7754 C   0  0  0  0  0  0  0  0  0  0  0  0
    3.0728   -2.8286   -1.6185 C   0  0  0  0  0  0  0  0  0  0  0  0
    3.7926   -3.0404   -0.5065 C   0  0  0  0  0  0  0  0  0  0  0  0
    4.6389   -4.2760   -0.3750 C   0  0  0  0  0  0  0  0  0  0  0  0
    3.7511   -2.0976    0.5210 N   0  0  0  0  0  0  0  0  0  0  0  0
    4.5308   -2.2666    1.7532 C   0  0  0  0  0  0  0  0  0  0  0  0
    5.9107   -1.6259    1.7156 C   0  0  0  0  0  0  0  0  0  0  0  0
    6.7215   -1.6581    2.6313 O   0  0  0  0  0  0  0  0  0  0  0  0
    6.2302   -0.9989    0.5661 O   0  0  0  0  0  0  0  0  0  0  0  0
    3.0282   -0.9043    0.4136 C   0  0  0  0  0  0  0  0  0  0  0  0
    3.0076   -0.0628    1.3124 O   0  0  0  0  0  0  0  0  0  0  0  0
    2.2550   -0.6686   -0.8534 C   0  0  0  0  0  0  0  0  0  0  0  0
    1.5233    0.6578   -1.0257 C   0  0  0  0  0  0  0  0  0  0  0  0
    2.4314    1.8830   -0.7619 C   0  0  0  0  0  0  0  0  0  0  0  0
    1.8594    3.1515   -1.3512 C   0  0  0  0  0  0  0  0  0  0  0  0
    0.7773    3.2566   -1.9094 O   0  0  0  0  0  0  0  0  0  0  0  0
    2.7410    4.1752   -1.1601 O   0  0  0  0  0  0  0  0  0  0  0  0
    2.2973    5.4287   -1.6810 C   0  0  0  0  0  0  0  0  0  0  0  0
    0.1889    0.6381   -0.2856 C   0  0  0  0  0  0  0  0  0  0  0  0
   -0.9545    0.0275   -1.0426 C   0  0  0  0  0  0  0  0  0  0  0  0
   -0.7263   -0.4790   -2.1453 O   0  0  0  0  0  0  0  0  0  0  0  0
   -2.2185    0.0483   -0.4584 N   0  0  0  0  0  0  0  0  0  0  0  0
   -3.3328   -0.5072   -1.2313 C   0  0  0  0  0  0  0  0  0  0  0  0
   -4.1818    0.5638   -1.9478 C   0  0  0  0  0  0  0  0  0  0  0  0
   -3.3927    1.2997   -3.0328 C   0  0  0  0  0  0  0  0  0  0  0  0
   -5.4234   -0.0865   -2.5611 C   0  0  0  0  0  0  0  0  0  0  0  0
   -0.0209    1.1364    0.9416 C   0  0  0  0  0  0  0  0  0  0  0  0
   -1.3446    1.1175    1.5543 C   0  0  0  0  0  0  0  0  0  0  0  0
   -2.4350    0.5897    0.8474 C   0  0  0  0  0  0  0  0  0  0  0  0
   -1.5106    1.6434    2.8481 C   0  0  0  0  0  0  0  0  0  0  0  0
   -2.7662    1.6517    3.4506 C   0  0  0  0  0  0  0  0  0  0  0  0
   -3.8532    1.1346    2.7500 C   0  0  0  0  0  0  0  0  0  0  0  0
   -3.6929    0.6080    1.4634 C   0  0  0  0  0  0  0  0  0  0  0  0
   -3.0626    2.1302    4.6957 O   0  0  0  0  0  0  0  0  0  0  0  0
   -1.9814    2.6437    5.4638 C   0  0  0  0  0  0  0  0  0  0  0  0
    0.7151   -1.1466   -2.8065 H   0  0  0  0  0  0  0  0  0  0  0  0
    3.0768   -3.5376   -2.4418 H   0  0  0  0  0  0  0  0  0  0  0  0
    5.6840   -4.0148   -0.1789 H   0  0  0  0  0  0  0  0  0  0  0  0
    4.2700   -4.9137    0.4346 H   0  0  0  0  0  0  0  0  0  0  0  0
    4.6267   -4.8790   -1.2902 H   0  0  0  0  0  0  0  0  0  0  0  0
    4.6449   -3.3280    1.9890 H   0  0  0  0  0  0  0  0  0  0  0  0
    3.9864   -1.8083    2.5869 H   0  0  0  0  0  0  0  0  0  0  0  0
    7.1241   -0.6343    0.7300 H   0  0  0  0  0  0  0  0  0  0  0  0
    1.2916    0.7588   -2.0957 H   0  0  0  0  0  0  0  0  0  0  0  0
    2.5952    2.0662    0.3037 H   0  0  0  0  0  0  0  0  0  0  0  0
    3.4071    1.7184   -1.2374 H   0  0  0  0  0  0  0  0  0  0  0  0
    1.3758    5.7459   -1.1838 H   0  0  0  0  0  0  0  0  0  0  0  0
    2.1529    5.3647   -2.7637 H   0  0  0  0  0  0  0  0  0  0  0  0
    3.0726    6.1723   -1.4792 H   0  0  0  0  0  0  0  0  0  0  0  0
   -3.9490   -1.1263   -0.5684 H   0  0  0  0  0  0  0  0  0  0  0  0
   -2.9445   -1.2103   -1.9796 H   0  0  0  0  0  0  0  0  0  0  0  0
   -4.5209    1.3110   -1.2210 H   0  0  0  0  0  0  0  0  0  0  0  0
   -2.5592    1.8638   -2.6024 H   0  0  0  0  0  0  0  0  0  0  0  0
   -4.0332    2.0170   -3.5576 H   0  0  0  0  0  0  0  0  0  0  0  0
   -2.9888    0.6033   -3.7749 H   0  0  0  0  0  0  0  0  0  0  0  0
   -6.0286   -0.5723   -1.7885 H   0  0  0  0  0  0  0  0  0  0  0  0
   -6.0523    0.6619   -3.0538 H   0  0  0  0  0  0  0  0  0  0  0  0
   -5.1499   -0.8422   -3.3043 H   0  0  0  0  0  0  0  0  0  0  0  0
    0.7892    1.5659    1.5217 H   0  0  0  0  0  0  0  0  0  0  0  0
   -0.6432    2.0423    3.3639 H   0  0  0  0  0  0  0  0  0  0  0  0
   -4.8396    1.1388    3.2088 H   0  0  0  0  0  0  0  0  0  0  0  0
   -4.5806    0.2220    0.9747 H   0  0  0  0  0  0  0  0  0  0  0  0
   -1.5336    3.5174    4.9789 H   0  0  0  0  0  0  0  0  0  0  0  0
   -1.2311    1.8695    5.6566 H   0  0  0  0  0  0  0  0  0  0  0  0
   -2.3813    2.9673    6.4300 H   0  0  0  0  0  0  0  0  0  0  0  0
  1  2  1  0
  2  3  1  0
  3  4  2  0
  4  5  1  0
  4  6  1  0
  6  7  1  0
  7  8  1  0
  8  9  2  0
  8 10  1  0
  6 11  1  0
 11 12  2  0
 11 13  1  0
 13 14  1  0
 14 15  1  0
 15 16  1  0
 16 17  2  0
 16 18  1  0
 18 19  1  0
 14 20  1  0
 20 21  1  0
 21 22  2  0
 21 23  1  0
 23 24  1  0
 24 25  1  0
 25 26  1  0
 25 27  1  0
 20 28  2  0
 28 29  1  0
 29 30  2  0
 29 31  1  0
 31 32  2  0
 32 33  1  0
 33 34  2  0
 32 35  1  0
 35 36  1  0
 13  2  2  0
 30 23  1  0
 34 30  1  0
  1 37  1  0
  3 38  1  0
  5 39  1  0
  5 40  1  0
  5 41  1  0
  7 42  1  0
  7 43  1  0
 10 44  1  0
 14 45  1  0
 15 46  1  0
 15 47  1  0
 19 48  1  0
 19 49  1  0
 19 50  1  0
 24 51  1  0
 24 52  1  0
 25 53  1  0
 26 54  1  0
 26 55  1  0
 26 56  1  0
 27 57  1  0
 27 58  1  0
 27 59  1  0
 28 60  1  0
 31 61  1  0
 33 62  1  0
 34 63  1  0
 36 64  1  0
 36 65  1  0
 36 66  1  0
M  END
>  <mol_id>  (2) 
STL541517

>  <drugclip_rank>  (2) 
2

>  <conformer>  (2) 
0

>  <align_rmsd>  (2) 
0.978

$$$$
V007-7712
     RDKit          3D

 65 66  0  0  0  0  0  0  0  0999 V2000
    5.0477   -0.5123    2.1811 O   0  0  0  0  0  0  0  0  0  0  0  0
    3.8736   -0.7715    1.9456 C   0  0  0  0  0  0  0  0  0  0  0  0
    3.4981   -2.0749    1.9161 O   0  0  0  0  0  0  0  0  0  0  0  0
    2.7943    0.1957    1.6953 C   0  0  0  0  0  0  0  0  0  0  0  0
    1.4255   -0.0454    1.3222 C   0  0  0  0  0  0  0  0  0  0  0  0
    0.7895   -1.3602    1.0440 C   0  0  0  0  0  0  0  0  0  0  0  0
    0.8437    1.2135    1.2661 C   0  0  0  0  0  0  0  0  0  0  0  0
    1.8616    2.0992    1.4976 N   0  0  0  0  0  0  0  0  0  0  0  0
    3.0302    1.5173    1.8044 N   0  0  0  0  0  0  0  0  0  0  0  0
    1.7736    3.5482    1.4836 C   0  0  0  0  0  0  0  0  0  0  0  0
    1.3599    4.1081    2.8331 C   0  0  0  0  0  0  0  0  0  0  0  0
   -0.3839    1.6733    1.0089 O   0  0  0  0  0  0  0  0  0  0  0  0
   -1.4964    0.9685    1.3836 C   0  0  0  0  0  0  0  0  0  0  0  0
   -2.4799    0.6505    0.4503 C   0  0  0  0  0  0  0  0  0  0  0  0
   -2.2926    1.1228   -1.2432 S   0  0  0  0  0  0  0  0  0  0  0  0
   -1.8169   -0.0407   -1.9554 O   0  0  0  0  0  0  0  0  0  0  0  0
   -1.6477    2.4154   -1.3157 O   0  0  0  0  0  0  0  0  0  0  0  0
   -3.8949    1.4495   -1.7114 N   0  0  0  0  0  0  0  0  0  0  0  0
   -4.4257    0.7262   -2.8918 C   0  0  0  0  0  0  0  0  0  0  0  0
   -3.8586    1.3201   -4.1768 C   0  0  0  0  0  0  0  0  0  0  0  0
   -5.9466    0.8603   -2.8686 C   0  0  0  0  0  0  0  0  0  0  0  0
   -1.6856    0.6155    2.7215 C   0  0  0  0  0  0  0  0  0  0  0  0
   -2.8327   -0.0844    3.1142 C   0  0  0  0  0  0  0  0  0  0  0  0
   -3.8068   -0.4358    2.1770 C   0  0  0  0  0  0  0  0  0  0  0  0
   -3.6207   -0.0687    0.8394 C   0  0  0  0  0  0  0  0  0  0  0  0
   -4.9772   -1.1579    2.4873 N   0  0  0  0  0  0  0  0  0  0  0  0
   -5.4150   -1.5657    3.7392 C   0  0  0  0  0  0  0  0  0  0  0  0
   -4.8587   -1.3278    4.8065 O   0  0  0  0  0  0  0  0  0  0  0  0
   -6.7251   -2.3679    3.6697 C   0  0  0  0  0  0  0  0  0  0  0  0
   -6.9684   -3.1176    4.9940 C   0  0  0  0  0  0  0  0  0  0  0  0
   -8.1720   -4.0489    4.9548 C   0  0  0  0  0  0  0  0  0  0  0  0
   -7.8999   -1.4732    3.2221 C   0  0  0  0  0  0  0  0  0  0  0  0
   -8.3397   -0.4435    4.2556 C   0  0  0  0  0  0  0  0  0  0  0  0
    4.3461   -2.5297    2.1016 H   0  0  0  0  0  0  0  0  0  0  0  0
    1.4531   -1.9992    0.4540 H   0  0  0  0  0  0  0  0  0  0  0  0
   -0.1274   -1.2540    0.4590 H   0  0  0  0  0  0  0  0  0  0  0  0
    0.5443   -1.8737    1.9782 H   0  0  0  0  0  0  0  0  0  0  0  0
    1.0580    3.8371    0.7067 H   0  0  0  0  0  0  0  0  0  0  0  0
    2.7546    3.9388    1.1898 H   0  0  0  0  0  0  0  0  0  0  0  0
    0.3687    3.7435    3.1246 H   0  0  0  0  0  0  0  0  0  0  0  0
    2.0669    3.8134    3.6155 H   0  0  0  0  0  0  0  0  0  0  0  0
    1.3248    5.2014    2.7960 H   0  0  0  0  0  0  0  0  0  0  0  0
   -3.9930    2.4657   -1.7869 H   0  0  0  0  0  0  0  0  0  0  0  0
   -4.1820   -0.3401   -2.8213 H   0  0  0  0  0  0  0  0  0  0  0  0
   -4.0831    2.3905   -4.2524 H   0  0  0  0  0  0  0  0  0  0  0  0
   -2.7714    1.2098   -4.2241 H   0  0  0  0  0  0  0  0  0  0  0  0
   -4.2818    0.8212   -5.0553 H   0  0  0  0  0  0  0  0  0  0  0  0
   -6.3996    0.3229   -3.7086 H   0  0  0  0  0  0  0  0  0  0  0  0
   -6.2561    1.9092   -2.9311 H   0  0  0  0  0  0  0  0  0  0  0  0
   -6.3594    0.4504   -1.9410 H   0  0  0  0  0  0  0  0  0  0  0  0
   -0.9439    0.8825    3.4712 H   0  0  0  0  0  0  0  0  0  0  0  0
   -2.9270   -0.3458    4.1643 H   0  0  0  0  0  0  0  0  0  0  0  0
   -4.3622   -0.3363    0.0916 H   0  0  0  0  0  0  0  0  0  0  0  0
   -5.5693   -1.3989    1.7026 H   0  0  0  0  0  0  0  0  0  0  0  0
   -6.5736   -3.1307    2.8907 H   0  0  0  0  0  0  0  0  0  0  0  0
   -7.0826   -2.4117    5.8256 H   0  0  0  0  0  0  0  0  0  0  0  0
   -6.0805   -3.7190    5.2311 H   0  0  0  0  0  0  0  0  0  0  0  0
   -8.0946   -4.7546    4.1217 H   0  0  0  0  0  0  0  0  0  0  0  0
   -8.2289   -4.6271    5.8829 H   0  0  0  0  0  0  0  0  0  0  0  0
   -9.1081   -3.4919    4.8558 H   0  0  0  0  0  0  0  0  0  0  0  0
   -7.6397   -0.9350    2.3031 H   0  0  0  0  0  0  0  0  0  0  0  0
   -8.7593   -2.1030    2.9646 H   0  0  0  0  0  0  0  0  0  0  0  0
   -8.7580   -0.9205    5.1474 H   0  0  0  0  0  0  0  0  0  0  0  0
   -9.1211    0.1965    3.8303 H   0  0  0  0  0  0  0  0  0  0  0  0
   -7.5090    0.1992    4.5635 H   0  0  0  0  0  0  0  0  0  0  0  0
  1  2  2  0
  2  3  1  0
  2  4  1  0
  4  5  1  0
  5  6  1  0
  5  7  2  0
  7  8  1  0
  8  9  1  0
  8 10  1  0
 10 11  1  0
  7 12  1  0
 12 13  1  0
 13 14  2  0
 14 15  1  0
 15 16  2  0
 15 17  2  0
 15 18  1  0
 18 19  1  0
 19 20  1  0
 19 21  1  0
 13 22  1  0
 22 23  2  0
 23 24  1  0
 24 25  2  0
 24 26  1  0
 26 27  1  0
 27 28  2  0
 27 29  1  0
 29 30  1  0
 30 31  1  0
 29 32  1  0
 32 33  1  0
  9  4  2  0
 25 14  1  0
  3 34  1  0
  6 35  1  0
  6 36  1  0
  6 37  1  0
 10 38  1  0
 10 39  1  0
 11 40  1  0
 11 41  1  0
 11 42  1  0
 18 43  1  0
 19 44  1  0
 20 45  1  0
 20 46  1  0
 20 47  1  0
 21 48  1  0
 21 49  1  0
 21 50  1  0
 22 51  1  0
 23 52  1  0
 25 53  1  0
 26 54  1  0
 29 55  1  0
 30 56  1  0
 30 57  1  0
 31 58  1  0
 31 59  1  0
 31 60  1  0
 32 61  1  0
 32 62  1  0
 33 63  1  0
 33 64  1  0
 33 65  1  0
M  END
>  <mol_id>  (3) 
V007-7712

>  <drugclip_rank>  (3) 
3

>  <conformer>  (3) 
39

>  <align_rmsd>  (3) 
1.155

$$$$
V025-9447
     RDKit          3D

 74 75  0  0  0  0  0  0  0  0999 V2000
    1.5238    3.6268    1.7246 C   0  0  0  0  0  0  0  0  0  0  0  0
    2.2819    2.6909    0.7628 C   0  0  0  0  0  0  0  0  0  0  0  0
    1.9307    3.0385   -0.6977 C   0  0  0  0  0  0  0  0  0  0  0  0
    3.7959    2.9664    0.9472 C   0  0  0  0  0  0  0  0  0  0  0  0
    1.9462    1.2795    1.0461 N   0  0  0  0  0  0  0  0  0  0  0  0
    2.9048    0.4371    1.4834 N   0  0  0  0  0  0  0  0  0  0  0  0
    2.3133   -0.7674    1.5502 C   0  0  0  0  0  0  0  0  0  0  0  0
    3.0470   -1.9749    1.9520 C   0  0  0  0  0  0  0  0  0  0  0  0
    2.5555   -3.0862    2.1102 O   0  0  0  0  0  0  0  0  0  0  0  0
    4.3751   -1.8053    2.1679 O   0  0  0  0  0  0  0  0  0  0  0  0
    0.9307   -0.6750    1.1971 C   0  0  0  0  0  0  0  0  0  0  0  0
   -0.0391   -1.7971    1.1069 C   0  0  0  0  0  0  0  0  0  0  0  0
    0.7120    0.6726    0.9564 C   0  0  0  0  0  0  0  0  0  0  0  0
   -0.3681    1.3835    0.6252 O   0  0  0  0  0  0  0  0  0  0  0  0
   -1.6076    1.0896    1.1339 C   0  0  0  0  0  0  0  0  0  0  0  0
   -2.7218    1.1167    0.2956 C   0  0  0  0  0  0  0  0  0  0  0  0
   -2.4946    1.4482   -1.4275 S   0  0  0  0  0  0  0  0  0  0  0  0
   -2.4849    2.8895   -1.5625 O   0  0  0  0  0  0  0  0  0  0  0  0
   -1.4165    0.6292   -1.9319 O   0  0  0  0  0  0  0  0  0  0  0  0
   -3.9188    0.9515   -2.1634 N   0  0  0  0  0  0  0  0  0  0  0  0
   -4.1682   -0.4050   -2.7027 C   0  0  0  0  0  0  0  0  0  0  0  0
   -5.6883   -0.5009   -2.9376 C   0  0  0  0  0  0  0  0  0  0  0  0
   -3.7602   -1.5211   -1.7376 C   0  0  0  0  0  0  0  0  0  0  0  0
   -3.4543   -0.5594   -4.0508 C   0  0  0  0  0  0  0  0  0  0  0  0
   -1.7864    0.8712    2.5024 C   0  0  0  0  0  0  0  0  0  0  0  0
   -3.0660    0.6441    3.0155 C   0  0  0  0  0  0  0  0  0  0  0  0
   -4.1858    0.6513    2.1748 C   0  0  0  0  0  0  0  0  0  0  0  0
   -4.0083    0.9047    0.8140 C   0  0  0  0  0  0  0  0  0  0  0  0
   -5.4390    0.4160    2.7763 N   0  0  0  0  0  0  0  0  0  0  0  0
   -6.6663    0.2839    2.1488 C   0  0  0  0  0  0  0  0  0  0  0  0
   -6.8634    0.3079    0.9366 O   0  0  0  0  0  0  0  0  0  0  0  0
   -7.8380    0.0733    3.1175 C   0  0  0  0  0  0  0  0  0  0  0  0
   -7.6812   -1.2823    3.8318 C   0  0  0  0  0  0  0  0  0  0  0  0
   -8.9083   -1.7049    4.6227 C   0  0  0  0  0  0  0  0  0  0  0  0
   -7.9656    1.2741    4.0756 C   0  0  0  0  0  0  0  0  0  0  0  0
   -9.4105    1.7123    4.2810 C   0  0  0  0  0  0  0  0  0  0  0  0
    1.8192    4.6716    1.5703 H   0  0  0  0  0  0  0  0  0  0  0  0
    1.7306    3.3697    2.7701 H   0  0  0  0  0  0  0  0  0  0  0  0
    0.4399    3.5803    1.5820 H   0  0  0  0  0  0  0  0  0  0  0  0
    2.2445    4.0595   -0.9444 H   0  0  0  0  0  0  0  0  0  0  0  0
    0.8553    2.9788   -0.8929 H   0  0  0  0  0  0  0  0  0  0  0  0
    2.4312    2.3559   -1.3950 H   0  0  0  0  0  0  0  0  0  0  0  0
    4.4020    2.3407    0.2803 H   0  0  0  0  0  0  0  0  0  0  0  0
    4.1181    2.7718    1.9782 H   0  0  0  0  0  0  0  0  0  0  0  0
    4.0374    4.0122    0.7218 H   0  0  0  0  0  0  0  0  0  0  0  0
    4.6825   -2.6953    2.4272 H   0  0  0  0  0  0  0  0  0  0  0  0
    0.4266   -2.6848    0.6672 H   0  0  0  0  0  0  0  0  0  0  0  0
   -0.8920   -1.5457    0.4696 H   0  0  0  0  0  0  0  0  0  0  0  0
   -0.4131   -2.0573    2.1022 H   0  0  0  0  0  0  0  0  0  0  0  0
   -4.3746    1.7279   -2.6442 H   0  0  0  0  0  0  0  0  0  0  0  0
   -6.0313    0.2672   -3.6410 H   0  0  0  0  0  0  0  0  0  0  0  0
   -6.2434   -0.3555   -2.0030 H   0  0  0  0  0  0  0  0  0  0  0  0
   -5.9693   -1.4776   -3.3474 H   0  0  0  0  0  0  0  0  0  0  0  0
   -4.2872   -1.4397   -0.7819 H   0  0  0  0  0  0  0  0  0  0  0  0
   -4.0029   -2.5045   -2.1566 H   0  0  0  0  0  0  0  0  0  0  0  0
   -2.6873   -1.5214   -1.5277 H   0  0  0  0  0  0  0  0  0  0  0  0
   -2.3657   -0.5750   -3.9396 H   0  0  0  0  0  0  0  0  0  0  0  0
   -3.7019    0.2662   -4.7285 H   0  0  0  0  0  0  0  0  0  0  0  0
   -3.7430   -1.4949   -4.5443 H   0  0  0  0  0  0  0  0  0  0  0  0
   -0.9350    0.8867    3.1786 H   0  0  0  0  0  0  0  0  0  0  0  0
   -3.1697    0.4668    4.0837 H   0  0  0  0  0  0  0  0  0  0  0  0
   -4.8594    0.9570    0.1445 H   0  0  0  0  0  0  0  0  0  0  0  0
   -5.4316    0.3115    3.7829 H   0  0  0  0  0  0  0  0  0  0  0  0
   -8.7347    0.0239    2.4843 H   0  0  0  0  0  0  0  0  0  0  0  0
   -7.4721   -2.0565    3.0829 H   0  0  0  0  0  0  0  0  0  0  0  0
   -6.8158   -1.2704    4.5049 H   0  0  0  0  0  0  0  0  0  0  0  0
   -9.8106   -1.6690    4.0033 H   0  0  0  0  0  0  0  0  0  0  0  0
   -8.7868   -2.7325    4.9820 H   0  0  0  0  0  0  0  0  0  0  0  0
   -9.0578   -1.0677    5.4999 H   0  0  0  0  0  0  0  0  0  0  0  0
   -7.4191    2.1394    3.6797 H   0  0  0  0  0  0  0  0  0  0  0  0
   -7.5153    1.0426    5.0482 H   0  0  0  0  0  0  0  0  0  0  0  0
   -9.4506    2.5801    4.9473 H   0  0  0  0  0  0  0  0  0  0  0  0
  -10.0154    0.9198    4.7275 H   0  0  0  0  0  0  0  0  0  0  0  0
   -9.8701    1.9985    3.3295 H   0  0  0  0  0  0  0  0  0  0  0  0
  1  2  1  0
  2  3  1  0
  2  4  1  0
  2  5  1  0
  5  6  1  0
  6  7  2  0
  7  8  1  0
  8  9  2  0
  8 10  1  0
  7 11  1  0
 11 12  1  0
 11 13  2  0
 13 14  1  0
 14 15  1  0
 15 16  2  0
 16 17  1  0
 17 18  2  0
 17 19  2  0
 17 20  1  0
 20 21  1  0
 21 22  1  0
 21 23  1  0
 21 24  1  0
 15 25  1  0
 25 26  2  0
 26 27  1  0
 27 28  2  0
 27 29  1  0
 29 30  1  0
 30 31  2  0
 30 32  1  0
 32 33  1  0
 33 34  1  0
 32 35  1  0
 35 36  1  0
 13  5  1  0
 28 16  1  0
  1 37  1  0
  1 38  1  0
  1 39  1  0
  3 40  1  0
  3 41  1  0
  3 42  1  0
  4 43  1  0
  4 44  1  0
  4 45  1  0
 10 46  1  0
 12 47  1  0
 12 48  1  0
 12 49  1  0
 20 50  1  0
 22 51  1  0
 22 52  1  0
 22 53  1  0
 23 54  1  0
 23 55  1  0
 23 56  1  0
 24 57  1  0
 24 58  1  0
 24 59  1  0
 25 60  1  0
 26 61  1  0
 28 62  1  0
 29 63  1  0
 32 64  1  0
 33 65  1  0
 33 66  1  0
 34 67  1  0
 34 68  1  0
 34 69  1  0
 35 70  1  0
 35 71  1  0
 36 72  1  0
 36 73  1  0
 36 74  1  0
M  END
>  <mol_id>  (4) 
V025-9447

>  <drugclip_rank>  (4) 
4

>  <conformer>  (4) 
20

>  <align_rmsd>  (4) 
0.314

$$$$
V030-1729
     RDKit          3D

 66 68  0  0  0  0  0  0  0  0999 V2000
    1.0206    4.0857    2.3748 C   0  0  0  0  0  0  0  0  0  0  0  0
    1.9886    3.5070    1.3246 C   0  0  0  0  0  0  0  0  0  0  0  0
    1.6362    4.0462   -0.0750 C   0  0  0  0  0  0  0  0  0  0  0  0
    3.4063    4.0258    1.6727 C   0  0  0  0  0  0  0  0  0  0  0  0
    1.9302    2.0297    1.3319 N   0  0  0  0  0  0  0  0  0  0  0  0
    3.0275    1.3199    1.6600 N   0  0  0  0  0  0  0  0  0  0  0  0
    2.6777    0.0308    1.5151 C   0  0  0  0  0  0  0  0  0  0  0  0
    3.6596   -1.0364    1.7601 C   0  0  0  0  0  0  0  0  0  0  0  0
    4.8549   -0.8916    1.9895 O   0  0  0  0  0  0  0  0  0  0  0  0
    3.1588   -2.2974    1.7383 O   0  0  0  0  0  0  0  0  0  0  0  0
    1.3047   -0.0783    1.1179 C   0  0  0  0  0  0  0  0  0  0  0  0
    0.5613   -1.3248    0.7978 C   0  0  0  0  0  0  0  0  0  0  0  0
    0.8400    1.2275    1.0740 C   0  0  0  0  0  0  0  0  0  0  0  0
   -0.3454    1.7690    0.7870 O   0  0  0  0  0  0  0  0  0  0  0  0
   -1.5157    1.1938    1.2132 C   0  0  0  0  0  0  0  0  0  0  0  0
   -2.5725    1.0272    0.3152 C   0  0  0  0  0  0  0  0  0  0  0  0
   -2.3206    1.5063   -1.3686 S   0  0  0  0  0  0  0  0  0  0  0  0
   -1.9585    2.9061   -1.3888 O   0  0  0  0  0  0  0  0  0  0  0  0
   -1.4938    0.4839   -1.9733 O   0  0  0  0  0  0  0  0  0  0  0  0
   -3.8170    1.3535   -2.1161 N   0  0  0  0  0  0  0  0  0  0  0  0
   -4.7742    2.4736   -2.1150 C   0  0  0  0  0  0  0  0  0  0  0  0
   -4.4828    3.3828   -3.3084 C   0  0  0  0  0  0  0  0  0  0  0  0
   -6.1897    1.8744   -2.1924 C   0  0  0  0  0  0  0  0  0  0  0  0
   -7.2966    2.9079   -2.0401 C   0  0  0  0  0  0  0  0  0  0  0  0
   -1.6864    0.8380    2.5522 C   0  0  0  0  0  0  0  0  0  0  0  0
   -2.9004    0.2970    2.9807 C   0  0  0  0  0  0  0  0  0  0  0  0
   -3.9586    0.1114    2.0818 C   0  0  0  0  0  0  0  0  0  0  0  0
   -3.7865    0.4713    0.7427 C   0  0  0  0  0  0  0  0  0  0  0  0
   -5.1505   -0.4252    2.6066 N   0  0  0  0  0  0  0  0  0  0  0  0
   -6.3300   -0.6709    1.9392 C   0  0  0  0  0  0  0  0  0  0  0  0
   -6.5673   -0.5291    0.7506 O   0  0  0  0  0  0  0  0  0  0  0  0
   -7.3943   -1.2107    2.8319 C   0  0  0  0  0  0  0  0  0  0  0  0
   -7.8330   -0.4611    4.0694 C   0  0  0  0  0  0  0  0  0  0  0  0
   -8.7444   -0.5330    2.8812 C   0  0  0  0  0  0  0  0  0  0  0  0
    1.2145    3.6615    3.3664 H   0  0  0  0  0  0  0  0  0  0  0  0
    1.1235    5.1747    2.4503 H   0  0  0  0  0  0  0  0  0  0  0  0
   -0.0263    3.8825    2.1304 H   0  0  0  0  0  0  0  0  0  0  0  0
    1.7423    5.1361   -0.1156 H   0  0  0  0  0  0  0  0  0  0  0  0
    2.2925    3.6153   -0.8409 H   0  0  0  0  0  0  0  0  0  0  0  0
    0.6059    3.8150   -0.3617 H   0  0  0  0  0  0  0  0  0  0  0  0
    3.4420    5.1216    1.6554 H   0  0  0  0  0  0  0  0  0  0  0  0
    3.7156    3.7048    2.6744 H   0  0  0  0  0  0  0  0  0  0  0  0
    4.1538    3.6621    0.9577 H   0  0  0  0  0  0  0  0  0  0  0  0
    3.9570   -2.8319    1.9245 H   0  0  0  0  0  0  0  0  0  0  0  0
    1.1650   -1.9888    0.1713 H   0  0  0  0  0  0  0  0  0  0  0  0
   -0.3585   -1.1243    0.2412 H   0  0  0  0  0  0  0  0  0  0  0  0
    0.2953   -1.8566    1.7172 H   0  0  0  0  0  0  0  0  0  0  0  0
   -3.7936    0.7347   -2.9267 H   0  0  0  0  0  0  0  0  0  0  0  0
   -4.6811    3.0385   -1.1793 H   0  0  0  0  0  0  0  0  0  0  0  0
   -3.4564    3.7633   -3.2856 H   0  0  0  0  0  0  0  0  0  0  0  0
   -4.6058    2.8446   -4.2559 H   0  0  0  0  0  0  0  0  0  0  0  0
   -5.1492    4.2508   -3.3195 H   0  0  0  0  0  0  0  0  0  0  0  0
   -6.3227    1.3377   -3.1415 H   0  0  0  0  0  0  0  0  0  0  0  0
   -6.3122    1.1260   -1.4013 H   0  0  0  0  0  0  0  0  0  0  0  0
   -7.3113    3.6093   -2.8805 H   0  0  0  0  0  0  0  0  0  0  0  0
   -7.1785    3.4772   -1.1118 H   0  0  0  0  0  0  0  0  0  0  0  0
   -8.2717    2.4092   -2.0096 H   0  0  0  0  0  0  0  0  0  0  0  0
   -0.8817    0.9866    3.2682 H   0  0  0  0  0  0  0  0  0  0  0  0
   -3.0043    0.0291    4.0293 H   0  0  0  0  0  0  0  0  0  0  0  0
   -4.5822    0.3182    0.0232 H   0  0  0  0  0  0  0  0  0  0  0  0
   -5.1535   -0.6357    3.5969 H   0  0  0  0  0  0  0  0  0  0  0  0
   -7.4104   -2.2963    2.8687 H   0  0  0  0  0  0  0  0  0  0  0  0
   -8.0966   -1.0416    4.9460 H   0  0  0  0  0  0  0  0  0  0  0  0
   -7.3892    0.5031    4.2915 H   0  0  0  0  0  0  0  0  0  0  0  0
   -9.6224   -1.1663    2.9413 H   0  0  0  0  0  0  0  0  0  0  0  0
   -8.8878    0.3634    2.2869 H   0  0  0  0  0  0  0  0  0  0  0  0
  1  2  1  0
  2  3  1  0
  2  4  1  0
  2  5  1  0
  5  6  1  0
  6  7  2  0
  7  8  1  0
  8  9  2  0
  8 10  1  0
  7 11  1  0
 11 12  1  0
 11 13  2  0
 13 14  1  0
 14 15  1  0
 15 16  2  0
 16 17  1  0
 17 18  2  0
 17 19  2  0
 17 20  1  0
 20 21  1  0
 21 22  1  0
 21 23  1  0
 23 24  1  0
 15 25  1  0
 25 26  2  0
 26 27  1  0
 27 28  2  0
 27 29  1  0
 29 30  1  0
 30 31  2  0
 30 32  1  0
 32 33  1  0
 33 34  1  0
 13  5  1  0
 28 16  1  0
 34 32  1  0
  1 35  1  0
  1 36  1  0
  1 37  1  0
  3 38  1  0
  3 39  1  0
  3 40  1  0
  4 41  1  0
  4 42  1  0
  4 43  1  0
 10 44  1  0
 12 45  1  0
 12 46  1  0
 12 47  1  0
 20 48  1  0
 21 49  1  0
 22 50  1  0
 22 51  1  0
 22 52  1  0
 23 53  1  0
 23 54  1  0
 24 55  1  0
 24 56  1  0
 24 57  1  0
 25 58  1  0
 26 59  1  0
 28 60  1  0
 29 61  1  0
 32 62  1  0
 33 63  1  0
 33 64  1  0
 34 65  1  0
 34 66  1  0
M  END
>  <mol_id>  (5) 
V030-1729

>  <drugclip_rank>  (5) 
5

>  <conformer>  (5) 
30

>  <align_rmsd>  (5) 
0.59

$$$$
V007-7694
     RDKit          3D

 69 71  0  0  0  0  0  0  0  0999 V2000
    1.1989    3.8492    1.6150 C   0  0  0  0  0  0  0  0  0  0  0  0
    1.4981    5.2109    1.6555 C   0  0  0  0  0  0  0  0  0  0  0  0
    2.7810    5.6486    1.3670 C   0  0  0  0  0  0  0  0  0  0  0  0
    3.7653    4.7219    1.0299 C   0  0  0  0  0  0  0  0  0  0  0  0
    3.4928    3.3356    0.9834 C   0  0  0  0  0  0  0  0  0  0  0  0
    4.6350    2.4552    0.5063 C   0  0  0  0  0  0  0  0  0  0  0  0
    4.4126    1.9167   -0.9001 C   0  0  0  0  0  0  0  0  0  0  0  0
    2.1795    2.8913    1.2853 C   0  0  0  0  0  0  0  0  0  0  0  0
    1.8241    1.4980    1.3111 N   0  0  0  0  0  0  0  0  0  0  0  0
    2.7666    0.5680    1.5842 N   0  0  0  0  0  0  0  0  0  0  0  0
    2.1454   -0.6174    1.5842 C   0  0  0  0  0  0  0  0  0  0  0  0
    0.7583   -0.4662    1.3034 C   0  0  0  0  0  0  0  0  0  0  0  0
   -0.2319   -1.5668    1.1496 C   0  0  0  0  0  0  0  0  0  0  0  0
    2.8722   -1.8648    1.8591 C   0  0  0  0  0  0  0  0  0  0  0  0
    2.3565   -2.9568    2.0708 O   0  0  0  0  0  0  0  0  0  0  0  0
    4.2240   -1.7540    1.8820 O   0  0  0  0  0  0  0  0  0  0  0  0
    0.5647    0.9041    1.1781 C   0  0  0  0  0  0  0  0  0  0  0  0
   -0.5106    1.6379    0.8721 O   0  0  0  0  0  0  0  0  0  0  0  0
   -1.7785    1.2516    1.2281 C   0  0  0  0  0  0  0  0  0  0  0  0
   -2.7918    1.2283    0.2703 C   0  0  0  0  0  0  0  0  0  0  0  0
   -2.3725    1.5749   -1.4144 S   0  0  0  0  0  0  0  0  0  0  0  0
   -1.3207    0.6702   -1.8229 O   0  0  0  0  0  0  0  0  0  0  0  0
   -2.2533    3.0107   -1.5339 O   0  0  0  0  0  0  0  0  0  0  0  0
   -3.7403    1.1624   -2.3019 N   0  0  0  0  0  0  0  0  0  0  0  0
   -3.9184   -0.2338   -2.7143 C   0  0  0  0  0  0  0  0  0  0  0  0
   -5.4009   -0.5050   -3.0171 C   0  0  0  0  0  0  0  0  0  0  0  0
   -5.8397    0.1610   -4.3231 C   0  0  0  0  0  0  0  0  0  0  0  0
   -5.6525   -2.0112   -3.0954 C   0  0  0  0  0  0  0  0  0  0  0  0
   -2.0864    0.9706    2.5599 C   0  0  0  0  0  0  0  0  0  0  0  0
   -3.3926    0.6228    2.9164 C   0  0  0  0  0  0  0  0  0  0  0  0
   -4.4133    0.5822    1.9578 C   0  0  0  0  0  0  0  0  0  0  0  0
   -4.1070    0.9018    0.6342 C   0  0  0  0  0  0  0  0  0  0  0  0
   -5.6982    0.2059    2.4030 N   0  0  0  0  0  0  0  0  0  0  0  0
   -6.8630    0.1365    1.6571 C   0  0  0  0  0  0  0  0  0  0  0  0
   -6.9791    0.4124    0.4682 O   0  0  0  0  0  0  0  0  0  0  0  0
   -8.0384   -0.3873    2.4674 C   0  0  0  0  0  0  0  0  0  0  0  0
   -9.3528    0.2370    2.0279 C   0  0  0  0  0  0  0  0  0  0  0  0
    0.1893    3.5711    1.9063 H   0  0  0  0  0  0  0  0  0  0  0  0
    0.7259    5.9280    1.9250 H   0  0  0  0  0  0  0  0  0  0  0  0
    3.0210    6.7065    1.4099 H   0  0  0  0  0  0  0  0  0  0  0  0
    4.7615    5.0935    0.7995 H   0  0  0  0  0  0  0  0  0  0  0  0
    4.8382    1.6515    1.2202 H   0  0  0  0  0  0  0  0  0  0  0  0
    5.5647    3.0375    0.4913 H   0  0  0  0  0  0  0  0  0  0  0  0
    5.2775    1.3229   -1.2141 H   0  0  0  0  0  0  0  0  0  0  0  0
    3.5315    1.2745   -0.9693 H   0  0  0  0  0  0  0  0  0  0  0  0
    4.2892    2.7377   -1.6152 H   0  0  0  0  0  0  0  0  0  0  0  0
   -1.0393   -1.2918    0.4650 H   0  0  0  0  0  0  0  0  0  0  0  0
   -0.6690   -1.8270    2.1196 H   0  0  0  0  0  0  0  0  0  0  0  0
    0.2318   -2.4648    0.7292 H   0  0  0  0  0  0  0  0  0  0  0  0
    4.5281   -2.6575    2.0944 H   0  0  0  0  0  0  0  0  0  0  0  0
   -4.0247    1.9060   -2.9388 H   0  0  0  0  0  0  0  0  0  0  0  0
   -3.5837   -0.8982   -1.9095 H   0  0  0  0  0  0  0  0  0  0  0  0
   -3.3098   -0.4350   -3.6020 H   0  0  0  0  0  0  0  0  0  0  0  0
   -6.0179   -0.1010   -2.2034 H   0  0  0  0  0  0  0  0  0  0  0  0
   -6.8869   -0.0724   -4.5484 H   0  0  0  0  0  0  0  0  0  0  0  0
   -5.2280   -0.1828   -5.1648 H   0  0  0  0  0  0  0  0  0  0  0  0
   -5.7491    1.2494   -4.2631 H   0  0  0  0  0  0  0  0  0  0  0  0
   -6.7046   -2.2200   -3.3165 H   0  0  0  0  0  0  0  0  0  0  0  0
   -5.0440   -2.4764   -3.8800 H   0  0  0  0  0  0  0  0  0  0  0  0
   -5.4079   -2.4949   -2.1432 H   0  0  0  0  0  0  0  0  0  0  0  0
   -1.3169    1.0196    3.3267 H   0  0  0  0  0  0  0  0  0  0  0  0
   -3.5987    0.3965    3.9594 H   0  0  0  0  0  0  0  0  0  0  0  0
   -4.8769    0.9012   -0.1267 H   0  0  0  0  0  0  0  0  0  0  0  0
   -5.7743   -0.0352    3.3842 H   0  0  0  0  0  0  0  0  0  0  0  0
   -8.0773   -1.4732    2.3217 H   0  0  0  0  0  0  0  0  0  0  0  0
   -7.8892   -0.1963    3.5368 H   0  0  0  0  0  0  0  0  0  0  0  0
   -9.5304    0.0974    0.9552 H   0  0  0  0  0  0  0  0  0  0  0  0
   -9.3508    1.3152    2.2274 H   0  0  0  0  0  0  0  0  0  0  0  0
  -10.1887   -0.2115    2.5746 H   0  0  0  0  0  0  0  0  0  0  0  0
  1  2  2  0
  2  3  1  0
  3  4  2  0
  4  5  1  0
  5  6  1  0
  6  7  1  0
  5  8  2  0
  8  9  1  0
  9 10  1  0
 10 11  2  0
 11 12  1  0
 12 13  1  0
 11 14  1  0
 14 15  2  0
 14 16  1  0
  9 17  1  0
 17 18  1  0
 18 19  1  0
 19 20  2  0
 20 21  1  0
 21 22  2  0
 21 23  2  0
 21 24  1  0
 24 25  1  0
 25 26  1  0
 26 27  1  0
 26 28  1  0
 19 29  1  0
 29 30  2  0
 30 31  1  0
 31 32  2  0
 31 33  1  0
 33 34  1  0
 34 35  2  0
 34 36  1  0
 36 37  1  0
  8  1  1  0
 17 12  2  0
 32 20  1  0
  1 38  1  0
  2 39  1  0
  3 40  1  0
  4 41  1  0
  6 42  1  0
  6 43  1  0
  7 44  1  0
  7 45  1  0
  7 46  1  0
 13 47  1  0
 13 48  1  0
 13 49  1  0
 16 50  1  0
 24 51  1  0
 25 52  1  0
 25 53  1  0
 26 54  1  0
 27 55  1  0
 27 56  1  0
 27 57  1  0
 28 58  1  0
 28 59  1  0
 28 60  1  0
 29 61  1  0
 30 62  1  0
 32 63  1  0
 33 64  1  0
 36 65  1  0
 36 66  1  0
 37 67  1  0
 37 68  1  0
 37 69  1  0
M  END
>  <mol_id>  (6) 
V007-7694

>  <drugclip_rank>  (6) 
6

>  <conformer>  (6) 
24

>  <align_rmsd>  (6) 
0.256

$$$$
V007-7762
     RDKit          3D

 68 69  0  0  0  0  0  0  0  0999 V2000
    1.5113    3.6940    1.8992 C   0  0  0  0  0  0  0  0  0  0  0  0
    2.2074    2.7975    0.8567 C   0  0  0  0  0  0  0  0  0  0  0  0
    1.7939    3.2213   -0.5670 C   0  0  0  0  0  0  0  0  0  0  0  0
    3.7329    3.0407    0.9795 C   0  0  0  0  0  0  0  0  0  0  0  0
    1.8612    1.3797    1.0941 N   0  0  0  0  0  0  0  0  0  0  0  0
    2.8171    0.5144    1.4880 N   0  0  0  0  0  0  0  0  0  0  0  0
    2.2131   -0.6846    1.5301 C   0  0  0  0  0  0  0  0  0  0  0  0
    2.9385   -1.9114    1.8899 C   0  0  0  0  0  0  0  0  0  0  0  0
    2.4320   -3.0167    2.0454 O   0  0  0  0  0  0  0  0  0  0  0  0
    4.2757   -1.7684    2.0682 O   0  0  0  0  0  0  0  0  0  0  0  0
    0.8273   -0.5671    1.1946 C   0  0  0  0  0  0  0  0  0  0  0  0
   -0.1497   -1.6806    1.0733 C   0  0  0  0  0  0  0  0  0  0  0  0
    0.6181    0.7910    1.0053 C   0  0  0  0  0  0  0  0  0  0  0  0
   -0.4550    1.5321    0.7206 O   0  0  0  0  0  0  0  0  0  0  0  0
   -1.7097    1.1772    1.1426 C   0  0  0  0  0  0  0  0  0  0  0  0
   -2.7719    1.1872    0.2383 C   0  0  0  0  0  0  0  0  0  0  0  0
   -2.4461    1.6111   -1.4474 S   0  0  0  0  0  0  0  0  0  0  0  0
   -1.4427    0.7067   -1.9639 O   0  0  0  0  0  0  0  0  0  0  0  0
   -2.2916    3.0491   -1.4939 O   0  0  0  0  0  0  0  0  0  0  0  0
   -3.8686    1.2913   -2.2641 N   0  0  0  0  0  0  0  0  0  0  0  0
   -4.2281   -0.0676   -2.6609 C   0  0  0  0  0  0  0  0  0  0  0  0
   -3.9212   -0.3020   -4.1377 C   0  0  0  0  0  0  0  0  0  0  0  0
   -4.7527    0.5763   -5.0650 C   0  0  0  0  0  0  0  0  0  0  0  0
   -1.9572    0.9012    2.4894 C   0  0  0  0  0  0  0  0  0  0  0  0
   -3.2523    0.5904    2.9139 C   0  0  0  0  0  0  0  0  0  0  0  0
   -4.3154    0.5603    2.0025 C   0  0  0  0  0  0  0  0  0  0  0  0
   -4.0710    0.8788    0.6657 C   0  0  0  0  0  0  0  0  0  0  0  0
   -5.5897    0.2287    2.5069 N   0  0  0  0  0  0  0  0  0  0  0  0
   -6.7404   -0.0190    1.7766 C   0  0  0  0  0  0  0  0  0  0  0  0
   -6.8399   -0.0371    0.5544 O   0  0  0  0  0  0  0  0  0  0  0  0
   -7.9486   -0.2836    2.6588 C   0  0  0  0  0  0  0  0  0  0  0  0
   -8.4999    1.0024    3.2910 C   0  0  0  0  0  0  0  0  0  0  0  0
   -9.5132    0.6572    4.3845 C   0  0  0  0  0  0  0  0  0  0  0  0
   -9.1546    1.9010    2.2382 C   0  0  0  0  0  0  0  0  0  0  0  0
    0.4199    3.6553    1.8196 H   0  0  0  0  0  0  0  0  0  0  0  0
    1.8054    4.7429    1.7767 H   0  0  0  0  0  0  0  0  0  0  0  0
    1.7754    3.3889    2.9185 H   0  0  0  0  0  0  0  0  0  0  0  0
    2.2257    2.5518   -1.3192 H   0  0  0  0  0  0  0  0  0  0  0  0
    0.7086    3.2138   -0.7041 H   0  0  0  0  0  0  0  0  0  0  0  0
    2.1319    4.2401   -0.7907 H   0  0  0  0  0  0  0  0  0  0  0  0
    4.2956    2.4340    0.2583 H   0  0  0  0  0  0  0  0  0  0  0  0
    3.9815    4.0911    0.7889 H   0  0  0  0  0  0  0  0  0  0  0  0
    4.0997    2.7977    1.9843 H   0  0  0  0  0  0  0  0  0  0  0  0
    4.5744   -2.6682    2.2987 H   0  0  0  0  0  0  0  0  0  0  0  0
    0.3139   -2.5628    0.6215 H   0  0  0  0  0  0  0  0  0  0  0  0
   -0.5367   -1.9576    2.0585 H   0  0  0  0  0  0  0  0  0  0  0  0
   -0.9917   -1.4115    0.4287 H   0  0  0  0  0  0  0  0  0  0  0  0
   -4.3114    2.0943   -2.7059 H   0  0  0  0  0  0  0  0  0  0  0  0
   -5.2968   -0.2127   -2.4677 H   0  0  0  0  0  0  0  0  0  0  0  0
   -3.6961   -0.8036   -2.0493 H   0  0  0  0  0  0  0  0  0  0  0  0
   -4.1324   -1.3524   -4.3785 H   0  0  0  0  0  0  0  0  0  0  0  0
   -2.8571   -0.1297   -4.3383 H   0  0  0  0  0  0  0  0  0  0  0  0
   -4.5690    0.3040   -6.1091 H   0  0  0  0  0  0  0  0  0  0  0  0
   -5.8227    0.4544   -4.8664 H   0  0  0  0  0  0  0  0  0  0  0  0
   -4.4974    1.6340   -4.9458 H   0  0  0  0  0  0  0  0  0  0  0  0
   -1.1481    0.9303    3.2151 H   0  0  0  0  0  0  0  0  0  0  0  0
   -3.4120    0.3692    3.9668 H   0  0  0  0  0  0  0  0  0  0  0  0
   -4.8866    0.9183   -0.0460 H   0  0  0  0  0  0  0  0  0  0  0  0
   -5.6515    0.0929    3.5089 H   0  0  0  0  0  0  0  0  0  0  0  0
   -8.7155   -0.7868    2.0565 H   0  0  0  0  0  0  0  0  0  0  0  0
   -7.6483   -0.9990    3.4364 H   0  0  0  0  0  0  0  0  0  0  0  0
   -7.6813    1.5668    3.7555 H   0  0  0  0  0  0  0  0  0  0  0  0
   -9.0454    0.0551    5.1716 H   0  0  0  0  0  0  0  0  0  0  0  0
  -10.3580    0.0888    3.9768 H   0  0  0  0  0  0  0  0  0  0  0  0
   -9.9086    1.5670    4.8508 H   0  0  0  0  0  0  0  0  0  0  0  0
   -9.9655    1.3789    1.7188 H   0  0  0  0  0  0  0  0  0  0  0  0
   -9.5756    2.8003    2.7010 H   0  0  0  0  0  0  0  0  0  0  0  0
   -8.4243    2.2281    1.4919 H   0  0  0  0  0  0  0  0  0  0  0  0
  1  2  1  0
  2  3  1  0
  2  4  1  0
  2  5  1  0
  5  6  1  0
  6  7  2  0
  7  8  1  0
  8  9  2  0
  8 10  1  0
  7 11  1  0
 11 12  1  0
 11 13  2  0
 13 14  1  0
 14 15  1  0
 15 16  2  0
 16 17  1  0
 17 18  2  0
 17 19  2  0
 17 20  1  0
 20 21  1  0
 21 22  1  0
 22 23  1  0
 15 24  1  0
 24 25  2  0
 25 26  1  0
 26 27  2  0
 26 28  1  0
 28 29  1  0
 29 30  2  0
 29 31  1  0
 31 32  1  0
 32 33  1  0
 32 34  1  0
 13  5  1  0
 27 16  1  0
  1 35  1  0
  1 36  1  0
  1 37  1  0
  3 38  1  0
  3 39  1  0
  3 40  1  0
  4 41  1  0
  4 42  1  0
  4 43  1  0
 10 44  1  0
 12 45  1  0
 12 46  1  0
 12 47  1  0
 20 48  1  0
 21 49  1  0
 21 50  1  0
 22 51  1  0
 22 52  1  0
 23 53  1  0
 23 54  1  0
 23 55  1  0
 24 56  1  0
 25 57  1  0
 27 58  1  0
 28 59  1  0
 31 60  1  0
 31 61  1  0
 32 62  1  0
 33 63  1  0
 33 64  1  0
 33 65  1  0
 34 66  1  0
 34 67  1  0
 34 68  1  0
M  END
>  <mol_id>  (7) 
V007-7762

>  <drugclip_rank>  (7) 
7

>  <conformer>  (7) 
19

>  <align_rmsd>  (7) 
0.198

$$$$
V028-1587
     RDKit          3D

 64 67  0  0  0  0  0  0  0  0999 V2000
   -9.6538   -0.1170    4.2197 C   0  0  0  0  0  0  0  0  0  0  0  0
   -8.2556    0.1330    3.6710 C   0  0  0  0  0  0  0  0  0  0  0  0
   -7.8998   -0.7977    2.5020 C   0  0  0  0  0  0  0  0  0  0  0  0
   -7.6019   -2.2299    2.9484 C   0  0  0  0  0  0  0  0  0  0  0  0
   -6.7245   -0.2537    1.6832 C   0  0  0  0  0  0  0  0  0  0  0  0
   -6.8433   -0.1056    0.4705 O   0  0  0  0  0  0  0  0  0  0  0  0
   -5.5785   -0.0219    2.4237 N   0  0  0  0  0  0  0  0  0  0  0  0
   -4.3261    0.4289    1.9565 C   0  0  0  0  0  0  0  0  0  0  0  0
   -4.0685    0.7764    0.6298 C   0  0  0  0  0  0  0  0  0  0  0  0
   -3.2908    0.5216    2.8969 C   0  0  0  0  0  0  0  0  0  0  0  0
   -2.0103    0.9312    2.5153 C   0  0  0  0  0  0  0  0  0  0  0  0
   -1.7478    1.2370    1.1797 C   0  0  0  0  0  0  0  0  0  0  0  0
   -2.7837    1.1872    0.2468 C   0  0  0  0  0  0  0  0  0  0  0  0
   -2.4206    1.6133   -1.4318 S   0  0  0  0  0  0  0  0  0  0  0  0
   -2.1981    3.0449   -1.4784 O   0  0  0  0  0  0  0  0  0  0  0  0
   -1.4490    0.6612   -1.9249 O   0  0  0  0  0  0  0  0  0  0  0  0
   -3.8887    1.3641   -2.2535 N   0  0  0  0  0  0  0  0  0  0  0  0
   -3.8459    0.3928   -3.3519 C   0  0  0  0  0  0  0  0  0  0  0  0
   -4.9109    0.3733   -4.4100 C   0  0  0  0  0  0  0  0  0  0  0  0
   -3.5176    0.8115   -4.7552 C   0  0  0  0  0  0  0  0  0  0  0  0
   -0.5002    1.6461    0.7887 O   0  0  0  0  0  0  0  0  0  0  0  0
    0.5918    0.9166    1.0368 C   0  0  0  0  0  0  0  0  0  0  0  0
    0.7957   -0.4518    1.1716 C   0  0  0  0  0  0  0  0  0  0  0  0
   -0.1798   -1.5594    0.9927 C   0  0  0  0  0  0  0  0  0  0  0  0
    2.1705   -0.5885    1.5177 C   0  0  0  0  0  0  0  0  0  0  0  0
    2.8819   -1.8286    1.8571 C   0  0  0  0  0  0  0  0  0  0  0  0
    2.3548   -2.9186    2.0465 O   0  0  0  0  0  0  0  0  0  0  0  0
    4.2302   -1.7156    1.9672 O   0  0  0  0  0  0  0  0  0  0  0  0
    2.7880    0.6014    1.5133 N   0  0  0  0  0  0  0  0  0  0  0  0
    1.8521    1.5102    1.1331 N   0  0  0  0  0  0  0  0  0  0  0  0
    2.2526    2.8721    0.9250 C   0  0  0  0  0  0  0  0  0  0  0  0
    1.3550    3.8713    0.5253 C   0  0  0  0  0  0  0  0  0  0  0  0
    1.7955    5.1873    0.3345 C   0  0  0  0  0  0  0  0  0  0  0  0
    3.1366    5.5151    0.5218 C   0  0  0  0  0  0  0  0  0  0  0  0
    4.0439    4.5291    0.9000 C   0  0  0  0  0  0  0  0  0  0  0  0
    3.6047    3.2183    1.1087 C   0  0  0  0  0  0  0  0  0  0  0  0
   -9.8357    0.5200    5.0940 H   0  0  0  0  0  0  0  0  0  0  0  0
   -9.7875   -1.1564    4.5349 H   0  0  0  0  0  0  0  0  0  0  0  0
  -10.4142    0.1194    3.4673 H   0  0  0  0  0  0  0  0  0  0  0  0
   -8.1941    1.1788    3.3417 H   0  0  0  0  0  0  0  0  0  0  0  0
   -7.5310    0.0285    4.4866 H   0  0  0  0  0  0  0  0  0  0  0  0
   -8.7572   -0.8259    1.8137 H   0  0  0  0  0  0  0  0  0  0  0  0
   -7.2945   -2.8406    2.0904 H   0  0  0  0  0  0  0  0  0  0  0  0
   -8.4833   -2.6990    3.3959 H   0  0  0  0  0  0  0  0  0  0  0  0
   -6.7900   -2.2668    3.6843 H   0  0  0  0  0  0  0  0  0  0  0  0
   -5.6230   -0.2522    3.4087 H   0  0  0  0  0  0  0  0  0  0  0  0
   -4.8532    0.7253   -0.1165 H   0  0  0  0  0  0  0  0  0  0  0  0
   -3.4634    0.2741    3.9423 H   0  0  0  0  0  0  0  0  0  0  0  0
   -1.2221    1.0015    3.2612 H   0  0  0  0  0  0  0  0  0  0  0  0
   -4.2920    2.2689   -2.5054 H   0  0  0  0  0  0  0  0  0  0  0  0
   -3.4842   -0.5808   -3.0215 H   0  0  0  0  0  0  0  0  0  0  0  0
   -5.6921    1.1255   -4.3745 H   0  0  0  0  0  0  0  0  0  0  0  0
   -5.2434   -0.5956   -4.7666 H   0  0  0  0  0  0  0  0  0  0  0  0
   -3.3532    1.8630   -4.9663 H   0  0  0  0  0  0  0  0  0  0  0  0
   -2.8964    0.1396   -5.3406 H   0  0  0  0  0  0  0  0  0  0  0  0
   -0.6120   -1.8550    1.9558 H   0  0  0  0  0  0  0  0  0  0  0  0
    0.2971   -2.4321    0.5346 H   0  0  0  0  0  0  0  0  0  0  0  0
   -0.9930   -1.2708    0.3229 H   0  0  0  0  0  0  0  0  0  0  0  0
    4.5191   -2.6190    2.1996 H   0  0  0  0  0  0  0  0  0  0  0  0
    0.2995    3.6856    0.3527 H   0  0  0  0  0  0  0  0  0  0  0  0
    1.0862    5.9547    0.0301 H   0  0  0  0  0  0  0  0  0  0  0  0
    3.4752    6.5364    0.3640 H   0  0  0  0  0  0  0  0  0  0  0  0
    5.0959    4.7769    1.0263 H   0  0  0  0  0  0  0  0  0  0  0  0
    4.3414    2.4707    1.4024 H   0  0  0  0  0  0  0  0  0  0  0  0
  1  2  1  0
  2  3  1  0
  3  4  1  0
  3  5  1  0
  5  6  2  0
  5  7  1  0
  7  8  1  0
  8  9  2  0
  8 10  1  0
 10 11  2  0
 11 12  1  0
 12 13  2  0
 13 14  1  0
 14 15  2  0
 14 16  2  0
 14 17  1  0
 17 18  1  0
 18 19  1  0
 19 20  1  0
 12 21  1  0
 21 22  1  0
 22 23  2  0
 23 24  1  0
 23 25  1  0
 25 26  1  0
 26 27  2  0
 26 28  1  0
 25 29  2  0
 29 30  1  0
 30 31  1  0
 31 32  2  0
 32 33  1  0
 33 34  2  0
 34 35  1  0
 35 36  2  0
 13  9  1  0
 20 18  1  0
 30 22  1  0
 36 31  1  0
  1 37  1  0
  1 38  1  0
  1 39  1  0
  2 40  1  0
  2 41  1  0
  3 42  1  0
  4 43  1  0
  4 44  1  0
  4 45  1  0
  7 46  1  0
  9 47  1  0
 10 48  1  0
 11 49  1  0
 17 50  1  0
 18 51  1  0
 19 52  1  0
 19 53  1  0
 20 54  1  0
 20 55  1  0
 24 56  1  0
 24 57  1  0
 24 58  1  0
 28 59  1  0
 32 60  1  0
 33 61  1  0
 34 62  1  0
 35 63  1  0
 36 64  1  0
M  END
>  <mol_id>  (8) 
V028-1587

>  <drugclip_rank>  (8) 
8

>  <conformer>  (8) 
15

>  <align_rmsd>  (8) 
0.223

$$$$
V029-4999
     RDKit          3D

 65 66  0  0  0  0  0  0  0  0999 V2000
    3.7909    3.0314    1.1034 C   0  0  0  0  0  0  0  0  0  0  0  0
    2.2764    2.7481    0.9402 C   0  0  0  0  0  0  0  0  0  0  0  0
    1.5320    3.5769    2.0039 C   0  0  0  0  0  0  0  0  0  0  0  0
    1.8782    3.2198   -0.4730 C   0  0  0  0  0  0  0  0  0  0  0  0
    1.9688    1.3127    1.1158 N   0  0  0  0  0  0  0  0  0  0  0  0
    2.9362    0.4672    1.5235 N   0  0  0  0  0  0  0  0  0  0  0  0
    2.3606   -0.7474    1.5453 C   0  0  0  0  0  0  0  0  0  0  0  0
    3.1054   -1.9586    1.9162 C   0  0  0  0  0  0  0  0  0  0  0  0
    2.6349   -3.0877    1.9878 O   0  0  0  0  0  0  0  0  0  0  0  0
    4.4177   -1.7703    2.2027 O   0  0  0  0  0  0  0  0  0  0  0  0
    0.9835   -0.6624    1.1697 C   0  0  0  0  0  0  0  0  0  0  0  0
    0.0345   -1.7942    1.0187 C   0  0  0  0  0  0  0  0  0  0  0  0
    0.7478    0.6895    0.9755 C   0  0  0  0  0  0  0  0  0  0  0  0
   -0.3387    1.3935    0.6509 O   0  0  0  0  0  0  0  0  0  0  0  0
   -1.5745    1.0906    1.1635 C   0  0  0  0  0  0  0  0  0  0  0  0
   -2.6938    1.1473    0.3345 C   0  0  0  0  0  0  0  0  0  0  0  0
   -2.4712    1.4885   -1.3860 S   0  0  0  0  0  0  0  0  0  0  0  0
   -2.4149    2.9275   -1.5248 O   0  0  0  0  0  0  0  0  0  0  0  0
   -1.4478    0.6146   -1.9138 O   0  0  0  0  0  0  0  0  0  0  0  0
   -3.9322    1.0312   -2.0994 N   0  0  0  0  0  0  0  0  0  0  0  0
   -4.1163   -0.3605   -2.5446 C   0  0  0  0  0  0  0  0  0  0  0  0
   -5.5934   -0.7151   -2.3949 C   0  0  0  0  0  0  0  0  0  0  0  0
   -3.6839   -0.4971   -4.0008 C   0  0  0  0  0  0  0  0  0  0  0  0
   -1.7482    0.8353    2.5257 C   0  0  0  0  0  0  0  0  0  0  0  0
   -3.0266    0.6087    3.0474 C   0  0  0  0  0  0  0  0  0  0  0  0
   -4.1497    0.6583    2.2204 C   0  0  0  0  0  0  0  0  0  0  0  0
   -3.9768    0.9367    0.8594 C   0  0  0  0  0  0  0  0  0  0  0  0
   -5.4714    0.4560    2.6700 N   0  0  0  0  0  0  0  0  0  0  0  0
   -5.8887    0.1294    3.9526 C   0  0  0  0  0  0  0  0  0  0  0  0
   -5.1590   -0.0609    4.9199 O   0  0  0  0  0  0  0  0  0  0  0  0
   -7.4132    0.0111    4.0571 C   0  0  0  0  0  0  0  0  0  0  0  0
   -7.8292   -0.5909    5.3988 C   0  0  0  0  0  0  0  0  0  0  0  0
   -8.0763    1.3744    3.8637 C   0  0  0  0  0  0  0  0  0  0  0  0
    4.1419    2.7747    2.1104 H   0  0  0  0  0  0  0  0  0  0  0  0
    4.3859    2.4571    0.3818 H   0  0  0  0  0  0  0  0  0  0  0  0
    4.0160    4.0931    0.9418 H   0  0  0  0  0  0  0  0  0  0  0  0
    1.7736    3.2280    3.0145 H   0  0  0  0  0  0  0  0  0  0  0  0
    0.4451    3.5185    1.8888 H   0  0  0  0  0  0  0  0  0  0  0  0
    1.8060    4.6355    1.9409 H   0  0  0  0  0  0  0  0  0  0  0  0
    2.1766    4.2616   -0.6367 H   0  0  0  0  0  0  0  0  0  0  0  0
    2.3610    2.6071   -1.2426 H   0  0  0  0  0  0  0  0  0  0  0  0
    0.7982    3.1711   -0.6425 H   0  0  0  0  0  0  0  0  0  0  0  0
    4.7358   -2.6640    2.4345 H   0  0  0  0  0  0  0  0  0  0  0  0
   -0.8383   -1.5145    0.4218 H   0  0  0  0  0  0  0  0  0  0  0  0
    0.5106   -2.6337    0.5018 H   0  0  0  0  0  0  0  0  0  0  0  0
   -0.3106   -2.1392    1.9974 H   0  0  0  0  0  0  0  0  0  0  0  0
   -4.3228    1.7786   -2.6752 H   0  0  0  0  0  0  0  0  0  0  0  0
   -3.5360   -1.0433   -1.9139 H   0  0  0  0  0  0  0  0  0  0  0  0
   -5.7839   -1.7442   -2.7216 H   0  0  0  0  0  0  0  0  0  0  0  0
   -6.2288   -0.0463   -2.9876 H   0  0  0  0  0  0  0  0  0  0  0  0
   -5.9118   -0.6288   -1.3500 H   0  0  0  0  0  0  0  0  0  0  0  0
   -2.6216   -0.2663   -4.1257 H   0  0  0  0  0  0  0  0  0  0  0  0
   -3.8486   -1.5181   -4.3624 H   0  0  0  0  0  0  0  0  0  0  0  0
   -4.2444    0.1867   -4.6486 H   0  0  0  0  0  0  0  0  0  0  0  0
   -0.8947    0.8248    3.2002 H   0  0  0  0  0  0  0  0  0  0  0  0
   -3.1062    0.4145    4.1128 H   0  0  0  0  0  0  0  0  0  0  0  0
   -4.8432    1.0066    0.2098 H   0  0  0  0  0  0  0  0  0  0  0  0
   -6.1959    0.5284    1.9680 H   0  0  0  0  0  0  0  0  0  0  0  0
   -7.7481   -0.6701    3.2637 H   0  0  0  0  0  0  0  0  0  0  0  0
   -7.5369    0.0558    6.2339 H   0  0  0  0  0  0  0  0  0  0  0  0
   -8.9143   -0.7332    5.4419 H   0  0  0  0  0  0  0  0  0  0  0  0
   -7.3554   -1.5671    5.5509 H   0  0  0  0  0  0  0  0  0  0  0  0
   -7.7190    2.0968    4.6068 H   0  0  0  0  0  0  0  0  0  0  0  0
   -7.8599    1.7882    2.8737 H   0  0  0  0  0  0  0  0  0  0  0  0
   -9.1649    1.2968    3.9583 H   0  0  0  0  0  0  0  0  0  0  0  0
  1  2  1  0
  2  3  1  0
  2  4  1  0
  2  5  1  0
  5  6  1  0
  6  7  2  0
  7  8  1  0
  8  9  2  0
  8 10  1  0
  7 11  1  0
 11 12  1  0
 11 13  2  0
 13 14  1  0
 14 15  1  0
 15 16  2  0
 16 17  1  0
 17 18  2  0
 17 19  2  0
 17 20  1  0
 20 21  1  0
 21 22  1  0
 21 23  1  0
 15 24  1  0
 24 25  2  0
 25 26  1  0
 26 27  2  0
 26 28  1  0
 28 29  1  0
 29 30  2  0
 29 31  1  0
 31 32  1  0
 31 33  1  0
 13  5  1  0
 27 16  1  0
  1 34  1  0
  1 35  1  0
  1 36  1  0
  3 37  1  0
  3 38  1  0
  3 39  1  0
  4 40  1  0
  4 41  1  0
  4 42  1  0
 10 43  1  0
 12 44  1  0
 12 45  1  0
 12 46  1  0
 20 47  1  0
 21 48  1  0
 22 49  1  0
 22 50  1  0
 22 51  1  0
 23 52  1  0
 23 53  1  0
 23 54  1  0
 24 55  1  0
 25 56  1  0
 27 57  1  0
 28 58  1  0
 31 59  1  0
 32 60  1  0
 32 61  1  0
 32 62  1  0
 33 63  1  0
 33 64  1  0
 33 65  1  0
M  END
>  <mol_id>  (9) 
V029-4999

>  <drugclip_rank>  (9) 
9

>  <conformer>  (9) 
15

>  <align_rmsd>  (9) 
0.351

$$$$
V005-5095
     RDKit          3D

 65 66  0  0  0  0  0  0  0  0999 V2000
    2.5099    3.3291    2.3392 C   0  0  0  0  0  0  0  0  0  0  0  0
    2.3315    2.6708    0.9723 C   0  0  0  0  0  0  0  0  0  0  0  0
    3.5578    2.8873    0.0842 C   0  0  0  0  0  0  0  0  0  0  0  0
    2.0066    1.2530    1.1157 N   0  0  0  0  0  0  0  0  0  0  0  0
    2.9523    0.3902    1.5334 N   0  0  0  0  0  0  0  0  0  0  0  0
    2.3496   -0.8130    1.5110 C   0  0  0  0  0  0  0  0  0  0  0  0
    3.0570   -2.0479    1.8763 C   0  0  0  0  0  0  0  0  0  0  0  0
    2.5495   -3.1610    1.9557 O   0  0  0  0  0  0  0  0  0  0  0  0
    4.3754   -1.9030    2.1566 O   0  0  0  0  0  0  0  0  0  0  0  0
    0.9777   -0.6886    1.1116 C   0  0  0  0  0  0  0  0  0  0  0  0
   -0.0018   -1.7886    0.9221 C   0  0  0  0  0  0  0  0  0  0  0  0
    0.7778    0.6715    0.9392 C   0  0  0  0  0  0  0  0  0  0  0  0
   -0.2801    1.4182    0.6136 O   0  0  0  0  0  0  0  0  0  0  0  0
   -1.5224    1.1577    1.1334 C   0  0  0  0  0  0  0  0  0  0  0  0
   -2.6495    1.2505    0.3177 C   0  0  0  0  0  0  0  0  0  0  0  0
   -2.4634    1.5421   -1.4187 S   0  0  0  0  0  0  0  0  0  0  0  0
   -2.5887    2.9684   -1.6209 O   0  0  0  0  0  0  0  0  0  0  0  0
   -1.3314    0.7887   -1.9122 O   0  0  0  0  0  0  0  0  0  0  0  0
   -3.8327    0.8552   -2.0987 N   0  0  0  0  0  0  0  0  0  0  0  0
   -3.9237   -0.5918   -2.3130 C   0  0  0  0  0  0  0  0  0  0  0  0
   -5.3603   -1.0316   -2.0476 C   0  0  0  0  0  0  0  0  0  0  0  0
   -3.5199   -0.9177   -3.7467 C   0  0  0  0  0  0  0  0  0  0  0  0
   -1.6891    0.9138    2.4999 C   0  0  0  0  0  0  0  0  0  0  0  0
   -2.9692    0.7422    3.0342 C   0  0  0  0  0  0  0  0  0  0  0  0
   -4.1041    0.8410    2.2204 C   0  0  0  0  0  0  0  0  0  0  0  0
   -3.9363    1.1047    0.8614 C   0  0  0  0  0  0  0  0  0  0  0  0
   -5.3577    0.6820    2.8464 N   0  0  0  0  0  0  0  0  0  0  0  0
   -6.6131    0.7332    2.2573 C   0  0  0  0  0  0  0  0  0  0  0  0
   -6.8398    0.8944    1.0625 O   0  0  0  0  0  0  0  0  0  0  0  0
   -7.7440    0.5836    3.2843 C   0  0  0  0  0  0  0  0  0  0  0  0
   -7.8190    1.8463    4.1464 C   0  0  0  0  0  0  0  0  0  0  0  0
   -9.0823    0.2930    2.5804 C   0  0  0  0  0  0  0  0  0  0  0  0
  -10.1974   -0.0988    3.5392 C   0  0  0  0  0  0  0  0  0  0  0  0
    2.7083    4.4010    2.2324 H   0  0  0  0  0  0  0  0  0  0  0  0
    1.6059    3.2118    2.9474 H   0  0  0  0  0  0  0  0  0  0  0  0
    3.3425    2.8856    2.8967 H   0  0  0  0  0  0  0  0  0  0  0  0
    1.4773    3.1427    0.4733 H   0  0  0  0  0  0  0  0  0  0  0  0
    4.4662    2.4781    0.5416 H   0  0  0  0  0  0  0  0  0  0  0  0
    3.4232    2.4037   -0.8895 H   0  0  0  0  0  0  0  0  0  0  0  0
    3.7230    3.9558   -0.0895 H   0  0  0  0  0  0  0  0  0  0  0  0
    4.6627   -2.8068    2.3851 H   0  0  0  0  0  0  0  0  0  0  0  0
   -0.8190   -1.4888    0.2595 H   0  0  0  0  0  0  0  0  0  0  0  0
    0.4718   -2.6596    0.4576 H   0  0  0  0  0  0  0  0  0  0  0  0
   -0.4234   -2.0950    1.8843 H   0  0  0  0  0  0  0  0  0  0  0  0
   -4.4154    1.4936   -2.6372 H   0  0  0  0  0  0  0  0  0  0  0  0
   -3.2656   -1.1240   -1.6168 H   0  0  0  0  0  0  0  0  0  0  0  0
   -6.0673   -0.4942   -2.6883 H   0  0  0  0  0  0  0  0  0  0  0  0
   -5.4825   -2.1037   -2.2300 H   0  0  0  0  0  0  0  0  0  0  0  0
   -5.6438   -0.8317   -1.0091 H   0  0  0  0  0  0  0  0  0  0  0  0
   -3.5838   -1.9969   -3.9295 H   0  0  0  0  0  0  0  0  0  0  0  0
   -2.4906   -0.6027   -3.9521 H   0  0  0  0  0  0  0  0  0  0  0  0
   -4.1672   -0.4089   -4.4711 H   0  0  0  0  0  0  0  0  0  0  0  0
   -0.8263    0.8736    3.1618 H   0  0  0  0  0  0  0  0  0  0  0  0
   -3.0612    0.5501    4.1009 H   0  0  0  0  0  0  0  0  0  0  0  0
   -4.7941    1.2188    0.2083 H   0  0  0  0  0  0  0  0  0  0  0  0
   -5.3351    0.5160    3.8444 H   0  0  0  0  0  0  0  0  0  0  0  0
   -7.4925   -0.2734    3.9222 H   0  0  0  0  0  0  0  0  0  0  0  0
   -6.8493    2.0909    4.5932 H   0  0  0  0  0  0  0  0  0  0  0  0
   -8.5298    1.7267    4.9682 H   0  0  0  0  0  0  0  0  0  0  0  0
   -8.1300    2.7093    3.5481 H   0  0  0  0  0  0  0  0  0  0  0  0
   -9.3997    1.1660    1.9960 H   0  0  0  0  0  0  0  0  0  0  0  0
   -8.9456   -0.5265    1.8633 H   0  0  0  0  0  0  0  0  0  0  0  0
  -11.1083   -0.3350    2.9778 H   0  0  0  0  0  0  0  0  0  0  0  0
  -10.4399    0.7123    4.2322 H   0  0  0  0  0  0  0  0  0  0  0  0
   -9.9203   -0.9833    4.1222 H   0  0  0  0  0  0  0  0  0  0  0  0
  1  2  1  0
  2  3  1  0
  2  4  1  0
  4  5  1  0
  5  6  2  0
  6  7  1  0
  7  8  2  0
  7  9  1  0
  6 10  1  0
 10 11  1  0
 10 12  2  0
 12 13  1  0
 13 14  1  0
 14 15  2  0
 15 16  1  0
 16 17  2  0
 16 18  2  0
 16 19  1  0
 19 20  1  0
 20 21  1  0
 20 22  1  0
 14 23  1  0
 23 24  2  0
 24 25  1  0
 25 26  2  0
 25 27  1  0
 27 28  1  0
 28 29  2  0
 28 30  1  0
 30 31  1  0
 30 32  1  0
 32 33  1  0
 12  4  1  0
 26 15  1  0
  1 34  1  0
  1 35  1  0
  1 36  1  0
  2 37  1  0
  3 38  1  0
  3 39  1  0
  3 40  1  0
  9 41  1  0
 11 42  1  0
 11 43  1  0
 11 44  1  0
 19 45  1  0
 20 46  1  0
 21 47  1  0
 21 48  1  0
 21 49  1  0
 22 50  1  0
 22 51  1  0
 22 52  1  0
 23 53  1  0
 24 54  1  0
 26 55  1  0
 27 56  1  0
 30 57  1  0
 31 58  1  0
 31 59  1  0
 31 60  1  0
 32 61  1  0
 32 62  1  0
 33 63  1  0
 33 64  1  0
 33 65  1  0
M  END
>  <mol_id>  (10) 
V005-5095

>  <drugclip_rank>  (10) 
10

>  <conformer>  (10) 
15

>  <align_rmsd>  (10) 
0.335

$$$$
V005-3154
     RDKit          3D

 68 69  0  0  0  0  0  0  0  0999 V2000
    4.1976    2.6097    0.6375 C   0  0  0  0  0  0  0  0  0  0  0  0
    2.6504    2.5340    0.6110 C   0  0  0  0  0  0  0  0  0  0  0  0
    2.2052    2.8805   -0.8240 C   0  0  0  0  0  0  0  0  0  0  0  0
    2.1178    3.5895    1.5988 C   0  0  0  0  0  0  0  0  0  0  0  0
    2.1640    1.1913    0.9930 N   0  0  0  0  0  0  0  0  0  0  0  0
    3.0388    0.2651    1.4349 N   0  0  0  0  0  0  0  0  0  0  0  0
    2.3114   -0.8492    1.6179 C   0  0  0  0  0  0  0  0  0  0  0  0
    2.9168   -2.1123    2.0626 C   0  0  0  0  0  0  0  0  0  0  0  0
    2.3036   -3.1421    2.3182 O   0  0  0  0  0  0  0  0  0  0  0  0
    4.2664   -2.0973    2.1976 O   0  0  0  0  0  0  0  0  0  0  0  0
    0.9307   -0.6068    1.3331 C   0  0  0  0  0  0  0  0  0  0  0  0
   -0.1673   -1.6068    1.3702 C   0  0  0  0  0  0  0  0  0  0  0  0
    0.8608    0.7419    1.0177 C   0  0  0  0  0  0  0  0  0  0  0  0
   -0.1416    1.5684    0.7085 O   0  0  0  0  0  0  0  0  0  0  0  0
   -1.3888    1.4243    1.2556 C   0  0  0  0  0  0  0  0  0  0  0  0
   -2.5242    1.5092    0.4536 C   0  0  0  0  0  0  0  0  0  0  0  0
   -2.4062    1.7155   -1.3030 S   0  0  0  0  0  0  0  0  0  0  0  0
   -1.1442    1.1937   -1.7767 O   0  0  0  0  0  0  0  0  0  0  0  0
   -2.8367    3.0644   -1.5958 O   0  0  0  0  0  0  0  0  0  0  0  0
   -3.5957    0.6942   -1.9078 N   0  0  0  0  0  0  0  0  0  0  0  0
   -3.5132   -0.7472   -1.6676 C   0  0  0  0  0  0  0  0  0  0  0  0
   -4.3167   -1.4985   -2.7393 C   0  0  0  0  0  0  0  0  0  0  0  0
   -3.6857   -1.3496   -4.1256 C   0  0  0  0  0  0  0  0  0  0  0  0
   -4.4242   -2.9794   -2.3725 C   0  0  0  0  0  0  0  0  0  0  0  0
   -1.5417    1.2995    2.6409 C   0  0  0  0  0  0  0  0  0  0  0  0
   -2.8170    1.2108    3.2073 C   0  0  0  0  0  0  0  0  0  0  0  0
   -3.9590    1.2652    2.4022 C   0  0  0  0  0  0  0  0  0  0  0  0
   -3.8049    1.4404    1.0274 C   0  0  0  0  0  0  0  0  0  0  0  0
   -5.2107    1.1545    3.0410 N   0  0  0  0  0  0  0  0  0  0  0  0
   -6.4518    1.0226    2.4347 C   0  0  0  0  0  0  0  0  0  0  0  0
   -6.6491    0.9230    1.2278 O   0  0  0  0  0  0  0  0  0  0  0  0
   -7.5978    0.9881    3.4510 C   0  0  0  0  0  0  0  0  0  0  0  0
   -7.7409    2.3413    4.1453 C   0  0  0  0  0  0  0  0  0  0  0  0
   -8.9148    0.5961    2.7830 C   0  0  0  0  0  0  0  0  0  0  0  0
    4.6459    1.8844   -0.0522 H   0  0  0  0  0  0  0  0  0  0  0  0
    4.5498    3.6051    0.3415 H   0  0  0  0  0  0  0  0  0  0  0  0
    4.5947    2.4101    1.6400 H   0  0  0  0  0  0  0  0  0  0  0  0
    2.6423    3.8301   -1.1542 H   0  0  0  0  0  0  0  0  0  0  0  0
    2.5169    2.1038   -1.5322 H   0  0  0  0  0  0  0  0  0  0  0  0
    1.1196    2.9870   -0.9090 H   0  0  0  0  0  0  0  0  0  0  0  0
    2.3915    3.3376    2.6300 H   0  0  0  0  0  0  0  0  0  0  0  0
    2.5277    4.5814    1.3762 H   0  0  0  0  0  0  0  0  0  0  0  0
    1.0274    3.6774    1.5619 H   0  0  0  0  0  0  0  0  0  0  0  0
    4.4785   -3.0033    2.4919 H   0  0  0  0  0  0  0  0  0  0  0  0
   -0.5090   -1.7612    2.3982 H   0  0  0  0  0  0  0  0  0  0  0  0
   -1.0205   -1.2941    0.7612 H   0  0  0  0  0  0  0  0  0  0  0  0
    0.1641   -2.5682    0.9662 H   0  0  0  0  0  0  0  0  0  0  0  0
   -4.5108    1.1292   -2.0194 H   0  0  0  0  0  0  0  0  0  0  0  0
   -2.4718   -1.0869   -1.6719 H   0  0  0  0  0  0  0  0  0  0  0  0
   -3.9376   -0.9608   -0.6807 H   0  0  0  0  0  0  0  0  0  0  0  0
   -5.3326   -1.0845   -2.7811 H   0  0  0  0  0  0  0  0  0  0  0  0
   -4.2662   -1.8973   -4.8759 H   0  0  0  0  0  0  0  0  0  0  0  0
   -3.6531   -0.3005   -4.4364 H   0  0  0  0  0  0  0  0  0  0  0  0
   -2.6617   -1.7390   -4.1404 H   0  0  0  0  0  0  0  0  0  0  0  0
   -5.0300   -3.5193   -3.1084 H   0  0  0  0  0  0  0  0  0  0  0  0
   -3.4366   -3.4523   -2.3333 H   0  0  0  0  0  0  0  0  0  0  0  0
   -4.8996   -3.1046   -1.3934 H   0  0  0  0  0  0  0  0  0  0  0  0
   -0.6685    1.2759    3.2892 H   0  0  0  0  0  0  0  0  0  0  0  0
   -2.8970    1.0995    4.2859 H   0  0  0  0  0  0  0  0  0  0  0  0
   -4.6697    1.5472    0.3812 H   0  0  0  0  0  0  0  0  0  0  0  0
   -5.1913    1.0942    4.0518 H   0  0  0  0  0  0  0  0  0  0  0  0
   -7.3570    0.2224    4.1993 H   0  0  0  0  0  0  0  0  0  0  0  0
   -6.8357    2.6047    4.7023 H   0  0  0  0  0  0  0  0  0  0  0  0
   -7.9222    3.1403    3.4177 H   0  0  0  0  0  0  0  0  0  0  0  0
   -8.5749    2.3299    4.8548 H   0  0  0  0  0  0  0  0  0  0  0  0
   -9.2181    1.3339    2.0321 H   0  0  0  0  0  0  0  0  0  0  0  0
   -9.7176    0.5145    3.5229 H   0  0  0  0  0  0  0  0  0  0  0  0
   -8.8227   -0.3723    2.2793 H   0  0  0  0  0  0  0  0  0  0  0  0
  1  2  1  0
  2  3  1  0
  2  4  1  0
  2  5  1  0
  5  6  1  0
  6  7  2  0
  7  8  1  0
  8  9  2  0
  8 10  1  0
  7 11  1  0
 11 12  1  0
 11 13  2  0
 13 14  1  0
 14 15  1  0
 15 16  2  0
 16 17  1  0
 17 18  2  0
 17 19  2  0
 17 20  1  0
 20 21  1  0
 21 22  1  0
 22 23  1  0
 22 24  1  0
 15 25  1  0
 25 26  2  0
 26 27  1  0
 27 28  2  0
 27 29  1  0
 29 30  1  0
 30 31  2  0
 30 32  1  0
 32 33  1  0
 32 34  1  0
 13  5  1  0
 28 16  1  0
  1 35  1  0
  1 36  1  0
  1 37  1  0
  3 38  1  0
  3 39  1  0
  3 40  1  0
  4 41  1  0
  4 42  1  0
  4 43  1  0
 10 44  1  0
 12 45  1  0
 12 46  1  0
 12 47  1  0
 20 48  1  0
 21 49  1  0
 21 50  1  0
 22 51  1  0
 23 52  1  0
 23 53  1  0
 23 54  1  0
 24 55  1  0
 24 56  1  0
 24 57  1  0
 25 58  1  0
 26 59  1  0
 28 60  1  0
 29 61  1  0
 32 62  1  0
 33 63  1  0
 33 64  1  0
 33 65  1  0
 34 66  1  0
 34 67  1  0
 34 68  1  0
M  END
>  <mol_id>  (11) 
V005-3154

>  <drugclip_rank>  (11) 
11

>  <conformer>  (11) 
14

>  <align_rmsd>  (11) 
0.739

$$$$
V027-3902
     RDKit          3D

 66 68  0  0  0  0  0  0  0  0999 V2000
   -7.0661   -1.3610    3.8729 C   0  0  0  0  0  0  0  0  0  0  0  0
   -6.6528   -0.0271    4.4925 C   0  0  0  0  0  0  0  0  0  0  0  0
   -7.0098   -0.0018    5.9781 C   0  0  0  0  0  0  0  0  0  0  0  0
   -5.1556    0.2200    4.2810 C   0  0  0  0  0  0  0  0  0  0  0  0
   -4.3569    0.1787    5.2102 O   0  0  0  0  0  0  0  0  0  0  0  0
   -4.8451    0.4671    2.9516 N   0  0  0  0  0  0  0  0  0  0  0  0
   -3.5743    0.7373    2.4026 C   0  0  0  0  0  0  0  0  0  0  0  0
   -3.5021    0.9196    1.0172 C   0  0  0  0  0  0  0  0  0  0  0  0
   -2.4035    0.8418    3.1548 C   0  0  0  0  0  0  0  0  0  0  0  0
   -1.1797    1.1211    2.5351 C   0  0  0  0  0  0  0  0  0  0  0  0
   -1.1029    1.2730    1.1473 C   0  0  0  0  0  0  0  0  0  0  0  0
   -2.2709    1.1825    0.3929 C   0  0  0  0  0  0  0  0  0  0  0  0
   -2.2466    1.3820   -1.3656 S   0  0  0  0  0  0  0  0  0  0  0  0
   -2.8938    2.6431   -1.6525 O   0  0  0  0  0  0  0  0  0  0  0  0
   -0.9476    1.0442   -1.8983 O   0  0  0  0  0  0  0  0  0  0  0  0
   -3.3164    0.1928   -1.8942 N   0  0  0  0  0  0  0  0  0  0  0  0
   -2.8673   -1.2025   -2.0057 C   0  0  0  0  0  0  0  0  0  0  0  0
   -4.0153   -2.1076   -1.5682 C   0  0  0  0  0  0  0  0  0  0  0  0
   -2.3726   -1.5074   -3.4278 C   0  0  0  0  0  0  0  0  0  0  0  0
   -3.4312   -1.4231   -4.5208 C   0  0  0  0  0  0  0  0  0  0  0  0
    0.0838    1.6022    0.5449 O   0  0  0  0  0  0  0  0  0  0  0  0
    1.2256    0.9807    0.8577 C   0  0  0  0  0  0  0  0  0  0  0  0
    1.5163   -0.3523    1.1198 C   0  0  0  0  0  0  0  0  0  0  0  0
    0.5974   -1.5175    1.0422 C   0  0  0  0  0  0  0  0  0  0  0  0
    2.8936   -0.3638    1.4951 C   0  0  0  0  0  0  0  0  0  0  0  0
    3.7222   -1.4894    1.9507 C   0  0  0  0  0  0  0  0  0  0  0  0
    4.9173   -1.4545    2.2154 O   0  0  0  0  0  0  0  0  0  0  0  0
    3.0641   -2.6661    2.0991 O   0  0  0  0  0  0  0  0  0  0  0  0
    3.4209    0.8651    1.4019 N   0  0  0  0  0  0  0  0  0  0  0  0
    2.4341    1.6692    0.9286 N   0  0  0  0  0  0  0  0  0  0  0  0
    2.7363    3.0371    0.6293 C   0  0  0  0  0  0  0  0  0  0  0  0
    4.0186    3.5312    0.9337 C   0  0  0  0  0  0  0  0  0  0  0  0
    4.3549    4.8609    0.6669 C   0  0  0  0  0  0  0  0  0  0  0  0
    3.4185    5.7131    0.0892 C   0  0  0  0  0  0  0  0  0  0  0  0
    2.1506    5.2331   -0.2304 C   0  0  0  0  0  0  0  0  0  0  0  0
    1.8088    3.9016    0.0330 C   0  0  0  0  0  0  0  0  0  0  0  0
   -8.1261   -1.5643    4.0565 H   0  0  0  0  0  0  0  0  0  0  0  0
   -6.4807   -2.1876    4.2901 H   0  0  0  0  0  0  0  0  0  0  0  0
   -6.9119   -1.3641    2.7894 H   0  0  0  0  0  0  0  0  0  0  0  0
   -7.2012    0.7849    3.9983 H   0  0  0  0  0  0  0  0  0  0  0  0
   -6.7211    0.9539    6.4307 H   0  0  0  0  0  0  0  0  0  0  0  0
   -8.0879   -0.1306    6.1226 H   0  0  0  0  0  0  0  0  0  0  0  0
   -6.4961   -0.7981    6.5288 H   0  0  0  0  0  0  0  0  0  0  0  0
   -5.6196    0.4598    2.2995 H   0  0  0  0  0  0  0  0  0  0  0  0
   -4.4027    0.8637    0.4098 H   0  0  0  0  0  0  0  0  0  0  0  0
   -2.4048    0.7328    4.2361 H   0  0  0  0  0  0  0  0  0  0  0  0
   -0.2924    1.2316    3.1546 H   0  0  0  0  0  0  0  0  0  0  0  0
   -4.0209    0.5463   -2.5399 H   0  0  0  0  0  0  0  0  0  0  0  0
   -2.0386   -1.3749   -1.3089 H   0  0  0  0  0  0  0  0  0  0  0  0
   -3.7418   -3.1624   -1.6717 H   0  0  0  0  0  0  0  0  0  0  0  0
   -4.2646   -1.9271   -0.5157 H   0  0  0  0  0  0  0  0  0  0  0  0
   -4.9259   -1.9258   -2.1484 H   0  0  0  0  0  0  0  0  0  0  0  0
   -1.5554   -0.8243   -3.6891 H   0  0  0  0  0  0  0  0  0  0  0  0
   -1.9459   -2.5186   -3.4416 H   0  0  0  0  0  0  0  0  0  0  0  0
   -2.9747   -1.6274   -5.4956 H   0  0  0  0  0  0  0  0  0  0  0  0
   -3.8837   -0.4291   -4.5677 H   0  0  0  0  0  0  0  0  0  0  0  0
   -4.2231   -2.1614   -4.3710 H   0  0  0  0  0  0  0  0  0  0  0  0
    1.0796   -2.3644    0.5439 H   0  0  0  0  0  0  0  0  0  0  0  0
    0.2848   -1.8272    2.0441 H   0  0  0  0  0  0  0  0  0  0  0  0
   -0.2993   -1.2882    0.4598 H   0  0  0  0  0  0  0  0  0  0  0  0
    3.7773   -3.2563    2.4187 H   0  0  0  0  0  0  0  0  0  0  0  0
    4.7733    2.8901    1.3882 H   0  0  0  0  0  0  0  0  0  0  0  0
    5.3479    5.2269    0.9134 H   0  0  0  0  0  0  0  0  0  0  0  0
    3.6783    6.7476   -0.1196 H   0  0  0  0  0  0  0  0  0  0  0  0
    1.4212    5.8946   -0.6927 H   0  0  0  0  0  0  0  0  0  0  0  0
    0.8161    3.5842   -0.2653 H   0  0  0  0  0  0  0  0  0  0  0  0
  1  2  1  0
  2  3  1  0
  2  4  1  0
  4  5  2  0
  4  6  1  0
  6  7  1  0
  7  8  2  0
  7  9  1  0
  9 10  2  0
 10 11  1  0
 11 12  2  0
 12 13  1  0
 13 14  2  0
 13 15  2  0
 13 16  1  0
 16 17  1  0
 17 18  1  0
 17 19  1  0
 19 20  1  0
 11 21  1  0
 21 22  1  0
 22 23  2  0
 23 24  1  0
 23 25  1  0
 25 26  1  0
 26 27  2  0
 26 28  1  0
 25 29  2  0
 29 30  1  0
 30 31  1  0
 31 32  2  0
 32 33  1  0
 33 34  2  0
 34 35  1  0
 35 36  2  0
 12  8  1  0
 30 22  1  0
 36 31  1  0
  1 37  1  0
  1 38  1  0
  1 39  1  0
  2 40  1  0
  3 41  1  0
  3 42  1  0
  3 43  1  0
  6 44  1  0
  8 45  1  0
  9 46  1  0
 10 47  1  0
 16 48  1  0
 17 49  1  0
 18 50  1  0
 18 51  1  0
 18 52  1  0
 19 53  1  0
 19 54  1  0
 20 55  1  0
 20 56  1  0
 20 57  1  0
 24 58  1  0
 24 59  1  0
 24 60  1  0
 28 61  1  0
 32 62  1  0
 33 63  1  0
 34 64  1  0
 35 65  1  0
 36 66  1  0
M  END
>  <mol_id>  (12) 
V027-3902

>  <drugclip_rank>  (12) 
12

>  <conformer>  (12) 
39

>  <align_rmsd>  (12) 
0.878

$$$$
V005-3144
     RDKit          3D

 64 67  0  0  0  0  0  0  0  0999 V2000
   -8.1887    1.2278    3.5766 C   0  0  0  0  0  0  0  0  0  0  0  0
   -7.4410   -0.0680    3.8857 C   0  0  0  0  0  0  0  0  0  0  0  0
   -7.8803   -0.6206    5.2406 C   0  0  0  0  0  0  0  0  0  0  0  0
   -5.9259    0.1589    3.8411 C   0  0  0  0  0  0  0  0  0  0  0  0
   -5.2311    0.0878    4.8489 O   0  0  0  0  0  0  0  0  0  0  0  0
   -5.4746    0.4348    2.5588 N   0  0  0  0  0  0  0  0  0  0  0  0
   -4.1542    0.7162    2.1512 C   0  0  0  0  0  0  0  0  0  0  0  0
   -3.9460    0.9490    0.7854 C   0  0  0  0  0  0  0  0  0  0  0  0
   -3.0650    0.7883    3.0215 C   0  0  0  0  0  0  0  0  0  0  0  0
   -1.7844    1.0797    2.5376 C   0  0  0  0  0  0  0  0  0  0  0  0
   -1.5769    1.2902    1.1723 C   0  0  0  0  0  0  0  0  0  0  0  0
   -2.6632    1.2432    0.2999 C   0  0  0  0  0  0  0  0  0  0  0  0
   -2.4104    1.5429   -1.4248 S   0  0  0  0  0  0  0  0  0  0  0  0
   -2.5692    2.9654   -1.6326 O   0  0  0  0  0  0  0  0  0  0  0  0
   -1.2408    0.8195   -1.8703 O   0  0  0  0  0  0  0  0  0  0  0  0
   -3.7798    0.8270   -2.1556 N   0  0  0  0  0  0  0  0  0  0  0  0
   -3.5089   -0.3445   -2.9966 C   0  0  0  0  0  0  0  0  0  0  0  0
   -4.5331   -0.8187   -3.9889 C   0  0  0  0  0  0  0  0  0  0  0  0
   -3.2443   -0.2134   -4.4675 C   0  0  0  0  0  0  0  0  0  0  0  0
   -0.3334    1.6298    0.7067 O   0  0  0  0  0  0  0  0  0  0  0  0
    0.7336    0.8622    0.9570 C   0  0  0  0  0  0  0  0  0  0  0  0
    0.8857   -0.5136    1.0746 C   0  0  0  0  0  0  0  0  0  0  0  0
   -0.1336   -1.5781    0.8818 C   0  0  0  0  0  0  0  0  0  0  0  0
    2.2485   -0.7068    1.4428 C   0  0  0  0  0  0  0  0  0  0  0  0
    2.9118   -1.9811    1.7559 C   0  0  0  0  0  0  0  0  0  0  0  0
    2.3715   -3.0814    1.7606 O   0  0  0  0  0  0  0  0  0  0  0  0
    4.2251   -1.8903    2.0770 O   0  0  0  0  0  0  0  0  0  0  0  0
    2.9027    0.4623    1.4885 N   0  0  0  0  0  0  0  0  0  0  0  0
    2.0069    1.4106    1.1058 N   0  0  0  0  0  0  0  0  0  0  0  0
    2.4530    2.7640    0.9525 C   0  0  0  0  0  0  0  0  0  0  0  0
    1.6208    3.7862    0.4804 C   0  0  0  0  0  0  0  0  0  0  0  0
    2.1085    5.0926    0.3466 C   0  0  0  0  0  0  0  0  0  0  0  0
    3.4308    5.4038    0.6817 C   0  0  0  0  0  0  0  0  0  0  0  0
    3.9554    6.7963    0.4959 C   0  0  0  0  0  0  0  0  0  0  0  0
    4.2692    4.3835    1.1344 C   0  0  0  0  0  0  0  0  0  0  0  0
    3.7863    3.0782    1.2708 C   0  0  0  0  0  0  0  0  0  0  0  0
   -7.9014    2.0262    4.2697 H   0  0  0  0  0  0  0  0  0  0  0  0
   -9.2715    1.0818    3.6514 H   0  0  0  0  0  0  0  0  0  0  0  0
   -7.9725    1.5817    2.5633 H   0  0  0  0  0  0  0  0  0  0  0  0
   -7.6892   -0.8156    3.1206 H   0  0  0  0  0  0  0  0  0  0  0  0
   -7.6718    0.0882    6.0506 H   0  0  0  0  0  0  0  0  0  0  0  0
   -7.3516   -1.5506    5.4744 H   0  0  0  0  0  0  0  0  0  0  0  0
   -8.9540   -0.8365    5.2441 H   0  0  0  0  0  0  0  0  0  0  0  0
   -6.1696    0.4069    1.8238 H   0  0  0  0  0  0  0  0  0  0  0  0
   -4.7879    0.9134    0.1000 H   0  0  0  0  0  0  0  0  0  0  0  0
   -3.1780    0.6362    4.0922 H   0  0  0  0  0  0  0  0  0  0  0  0
   -0.9564    1.1518    3.2391 H   0  0  0  0  0  0  0  0  0  0  0  0
   -4.3035    1.5680   -2.6281 H   0  0  0  0  0  0  0  0  0  0  0  0
   -2.9678   -1.1225   -2.4614 H   0  0  0  0  0  0  0  0  0  0  0  0
   -4.6650   -1.8885   -4.1064 H   0  0  0  0  0  0  0  0  0  0  0  0
   -5.4417   -0.2428   -4.1183 H   0  0  0  0  0  0  0  0  0  0  0  0
   -3.2766    0.7716   -4.9194 H   0  0  0  0  0  0  0  0  0  0  0  0
   -2.4980   -0.8714   -4.9006 H   0  0  0  0  0  0  0  0  0  0  0  0
   -0.9567   -1.2401    0.2484 H   0  0  0  0  0  0  0  0  0  0  0  0
    0.2975   -2.4539    0.3873 H   0  0  0  0  0  0  0  0  0  0  0  0
   -0.5475   -1.8881    1.8473 H   0  0  0  0  0  0  0  0  0  0  0  0
    4.4834   -2.8152    2.2559 H   0  0  0  0  0  0  0  0  0  0  0  0
    0.5901    3.6197    0.1874 H   0  0  0  0  0  0  0  0  0  0  0  0
    1.4428    5.8690   -0.0282 H   0  0  0  0  0  0  0  0  0  0  0  0
    3.1661    7.5369    0.6683 H   0  0  0  0  0  0  0  0  0  0  0  0
    4.7625    7.0089    1.2059 H   0  0  0  0  0  0  0  0  0  0  0  0
    4.3395    6.9166   -0.5224 H   0  0  0  0  0  0  0  0  0  0  0  0
    5.3063    4.5916    1.3857 H   0  0  0  0  0  0  0  0  0  0  0  0
    4.4724    2.3109    1.6287 H   0  0  0  0  0  0  0  0  0  0  0  0
  1  2  1  0
  2  3  1  0
  2  4  1  0
  4  5  2  0
  4  6  1  0
  6  7  1  0
  7  8  2  0
  7  9  1  0
  9 10  2  0
 10 11  1  0
 11 12  2  0
 12 13  1  0
 13 14  2  0
 13 15  2  0
 13 16  1  0
 16 17  1  0
 17 18  1  0
 18 19  1  0
 11 20  1  0
 20 21  1  0
 21 22  2  0
 22 23  1  0
 22 24  1  0
 24 25  1  0
 25 26  2  0
 25 27  1  0
 24 28  2  0
 28 29  1  0
 29 30  1  0
 30 31  2  0
 31 32  1  0
 32 33  2  0
 33 34  1  0
 33 35  1  0
 35 36  2  0
 12  8  1  0
 19 17  1  0
 29 21  1  0
 36 30  1  0
  1 37  1  0
  1 38  1  0
  1 39  1  0
  2 40  1  0
  3 41  1  0
  3 42  1  0
  3 43  1  0
  6 44  1  0
  8 45  1  0
  9 46  1  0
 10 47  1  0
 16 48  1  0
 17 49  1  0
 18 50  1  0
 18 51  1  0
 19 52  1  0
 19 53  1  0
 23 54  1  0
 23 55  1  0
 23 56  1  0
 27 57  1  0
 31 58  1  0
 32 59  1  0
 34 60  1  0
 34 61  1  0
 34 62  1  0
 35 63  1  0
 36 64  1  0
M  END
>  <mol_id>  (13) 
V005-3144

>  <drugclip_rank>  (13) 
13

>  <conformer>  (13) 
18

>  <align_rmsd>  (13) 
0.33

$$$$
V027-7761
     RDKit          3D

 71 72  0  0  0  0  0  0  0  0999 V2000
    2.3405    3.4893    2.7322 C   0  0  0  0  0  0  0  0  0  0  0  0
    1.9617    2.9938    1.3363 C   0  0  0  0  0  0  0  0  0  0  0  0
    3.0276    3.3630    0.3037 C   0  0  0  0  0  0  0  0  0  0  0  0
    1.6948    1.5562    1.3415 N   0  0  0  0  0  0  0  0  0  0  0  0
    2.6891    0.6972    1.6250 N   0  0  0  0  0  0  0  0  0  0  0  0
    2.1320   -0.5214    1.5050 C   0  0  0  0  0  0  0  0  0  0  0  0
    2.9038   -1.7563    1.7058 C   0  0  0  0  0  0  0  0  0  0  0  0
    2.4404   -2.8900    1.7140 O   0  0  0  0  0  0  0  0  0  0  0  0
    4.2352   -1.5875    1.9018 O   0  0  0  0  0  0  0  0  0  0  0  0
    0.7385   -0.4156    1.1769 C   0  0  0  0  0  0  0  0  0  0  0  0
   -0.1900   -1.5475    0.9205 C   0  0  0  0  0  0  0  0  0  0  0  0
    0.4818    0.9467    1.1386 C   0  0  0  0  0  0  0  0  0  0  0  0
   -0.6030    1.6953    0.9144 O   0  0  0  0  0  0  0  0  0  0  0  0
   -1.8598    1.2423    1.2153 C   0  0  0  0  0  0  0  0  0  0  0  0
   -2.8431    1.1977    0.2254 C   0  0  0  0  0  0  0  0  0  0  0  0
   -2.3858    1.6459   -1.4239 S   0  0  0  0  0  0  0  0  0  0  0  0
   -1.5834    0.5584   -1.9432 O   0  0  0  0  0  0  0  0  0  0  0  0
   -1.9120    3.0128   -1.4014 O   0  0  0  0  0  0  0  0  0  0  0  0
   -3.8013    1.6011   -2.3242 N   0  0  0  0  0  0  0  0  0  0  0  0
   -4.6769    2.7781   -2.4278 C   0  0  0  0  0  0  0  0  0  0  0  0
   -6.1035    2.2920   -2.6814 C   0  0  0  0  0  0  0  0  0  0  0  0
   -4.1965    3.7353   -3.5314 C   0  0  0  0  0  0  0  0  0  0  0  0
   -4.1412    3.1404   -4.9340 C   0  0  0  0  0  0  0  0  0  0  0  0
   -2.1821    0.8937    2.5273 C   0  0  0  0  0  0  0  0  0  0  0  0
   -3.4780    0.4744    2.8366 C   0  0  0  0  0  0  0  0  0  0  0  0
   -4.4687    0.4142    1.8465 C   0  0  0  0  0  0  0  0  0  0  0  0
   -4.1425    0.7721    0.5359 C   0  0  0  0  0  0  0  0  0  0  0  0
   -5.7488   -0.0136    2.2558 N   0  0  0  0  0  0  0  0  0  0  0  0
   -6.9039   -0.0828    1.4905 C   0  0  0  0  0  0  0  0  0  0  0  0
   -7.0056    0.2398    0.3117 O   0  0  0  0  0  0  0  0  0  0  0  0
   -8.1115   -0.5804    2.3024 C   0  0  0  0  0  0  0  0  0  0  0  0
   -8.5865    0.5703    3.2152 C   0  0  0  0  0  0  0  0  0  0  0  0
   -9.5953    0.1381    4.2702 C   0  0  0  0  0  0  0  0  0  0  0  0
   -9.2412   -1.0837    1.3836 C   0  0  0  0  0  0  0  0  0  0  0  0
   -8.8591   -2.3471    0.6199 C   0  0  0  0  0  0  0  0  0  0  0  0
    1.5685    3.2219    3.4626 H   0  0  0  0  0  0  0  0  0  0  0  0
    2.4490    4.5789    2.7401 H   0  0  0  0  0  0  0  0  0  0  0  0
    3.2863    3.0536    3.0736 H   0  0  0  0  0  0  0  0  0  0  0  0
    1.0308    3.4932    1.0436 H   0  0  0  0  0  0  0  0  0  0  0  0
    3.1517    4.4503    0.2494 H   0  0  0  0  0  0  0  0  0  0  0  0
    4.0011    2.9242    0.5511 H   0  0  0  0  0  0  0  0  0  0  0  0
    2.7444    3.0051   -0.6921 H   0  0  0  0  0  0  0  0  0  0  0  0
    4.5681   -2.4994    2.0062 H   0  0  0  0  0  0  0  0  0  0  0  0
   -0.5345   -1.9785    1.8671 H   0  0  0  0  0  0  0  0  0  0  0  0
    0.3037   -2.3333    0.3388 H   0  0  0  0  0  0  0  0  0  0  0  0
   -1.0632   -1.2386    0.3405 H   0  0  0  0  0  0  0  0  0  0  0  0
   -3.7541    0.9521   -3.1097 H   0  0  0  0  0  0  0  0  0  0  0  0
   -4.6749    3.3163   -1.4715 H   0  0  0  0  0  0  0  0  0  0  0  0
   -6.4689    1.7085   -1.8315 H   0  0  0  0  0  0  0  0  0  0  0  0
   -6.7851    3.1368   -2.8230 H   0  0  0  0  0  0  0  0  0  0  0  0
   -6.1641    1.6432   -3.5615 H   0  0  0  0  0  0  0  0  0  0  0  0
   -4.8609    4.6090   -3.5538 H   0  0  0  0  0  0  0  0  0  0  0  0
   -3.1996    4.1176   -3.2861 H   0  0  0  0  0  0  0  0  0  0  0  0
   -5.1273    2.8121   -5.2732 H   0  0  0  0  0  0  0  0  0  0  0  0
   -3.4534    2.2923   -4.9832 H   0  0  0  0  0  0  0  0  0  0  0  0
   -3.7875    3.8979   -5.6416 H   0  0  0  0  0  0  0  0  0  0  0  0
   -1.4304    0.9497    3.3106 H   0  0  0  0  0  0  0  0  0  0  0  0
   -3.7009    0.2034    3.8651 H   0  0  0  0  0  0  0  0  0  0  0  0
   -4.8807    0.7102   -0.2535 H   0  0  0  0  0  0  0  0  0  0  0  0
   -5.8385   -0.2706    3.2310 H   0  0  0  0  0  0  0  0  0  0  0  0
   -7.7729   -1.4173    2.9283 H   0  0  0  0  0  0  0  0  0  0  0  0
   -9.0200    1.3733    2.6061 H   0  0  0  0  0  0  0  0  0  0  0  0
   -7.7296    1.0140    3.7373 H   0  0  0  0  0  0  0  0  0  0  0  0
   -9.2058   -0.6916    4.8679 H   0  0  0  0  0  0  0  0  0  0  0  0
  -10.5438   -0.1702    3.8213 H   0  0  0  0  0  0  0  0  0  0  0  0
   -9.8105    0.9723    4.9471 H   0  0  0  0  0  0  0  0  0  0  0  0
   -9.5327   -0.3052    0.6685 H   0  0  0  0  0  0  0  0  0  0  0  0
  -10.1332   -1.3165    1.9748 H   0  0  0  0  0  0  0  0  0  0  0  0
   -8.0211   -2.1753   -0.0620 H   0  0  0  0  0  0  0  0  0  0  0  0
   -9.7088   -2.6938    0.0230 H   0  0  0  0  0  0  0  0  0  0  0  0
   -8.5810   -3.1513    1.3090 H   0  0  0  0  0  0  0  0  0  0  0  0
  1  2  1  0
  2  3  1  0
  2  4  1  0
  4  5  1  0
  5  6  2  0
  6  7  1  0
  7  8  2  0
  7  9  1  0
  6 10  1  0
 10 11  1  0
 10 12  2  0
 12 13  1  0
 13 14  1  0
 14 15  2  0
 15 16  1  0
 16 17  2  0
 16 18  2  0
 16 19  1  0
 19 20  1  0
 20 21  1  0
 20 22  1  0
 22 23  1  0
 14 24  1  0
 24 25  2  0
 25 26  1  0
 26 27  2  0
 26 28  1  0
 28 29  1  0
 29 30  2  0
 29 31  1  0
 31 32  1  0
 32 33  1  0
 31 34  1  0
 34 35  1  0
 12  4  1  0
 27 15  1  0
  1 36  1  0
  1 37  1  0
  1 38  1  0
  2 39  1  0
  3 40  1  0
  3 41  1  0
  3 42  1  0
  9 43  1  0
 11 44  1  0
 11 45  1  0
 11 46  1  0
 19 47  1  0
 20 48  1  0
 21 49  1  0
 21 50  1  0
 21 51  1  0
 22 52  1  0
 22 53  1  0
 23 54  1  0
 23 55  1  0
 23 56  1  0
 24 57  1  0
 25 58  1  0
 27 59  1  0
 28 60  1  0
 31 61  1  0
 32 62  1  0
 32 63  1  0
 33 64  1  0
 33 65  1  0
 33 66  1  0
 34 67  1  0
 34 68  1  0
 35 69  1  0
 35 70  1  0
 35 71  1  0
M  END
>  <mol_id>  (14) 
V027-7761

>  <drugclip_rank>  (14) 
14

>  <conformer>  (14) 
14

>  <align_rmsd>  (14) 
0.443

$$$$
Z2295663126
     RDKit          3D

 57 58  0  0  0  0  0  0  0  0999 V2000
   -3.3319    0.0903    4.6580 C   0  0  0  0  0  0  0  0  0  0  0  0
   -3.9512    0.9928    3.5875 C   0  0  0  0  0  0  0  0  0  0  0  0
   -3.8860    2.4628    4.0086 C   0  0  0  0  0  0  0  0  0  0  0  0
   -3.3043    0.7737    2.2308 C   0  0  0  0  0  0  0  0  0  0  0  0
   -1.9398    1.0074    2.0206 C   0  0  0  0  0  0  0  0  0  0  0  0
   -1.3639    0.7811    0.7645 C   0  0  0  0  0  0  0  0  0  0  0  0
   -2.1703    0.3914   -0.3178 C   0  0  0  0  0  0  0  0  0  0  0  0
   -1.6400    0.2575   -1.5761 O   0  0  0  0  0  0  0  0  0  0  0  0
   -3.5379    0.1387   -0.1376 C   0  0  0  0  0  0  0  0  0  0  0  0
   -4.0833    0.3311    1.1483 C   0  0  0  0  0  0  0  0  0  0  0  0
   -4.4655   -0.3145   -1.2562 C   0  0  0  0  0  0  0  0  0  0  0  0
   -4.6196    0.7441   -2.3512 C   0  0  0  0  0  0  0  0  0  0  0  0
   -4.0615   -1.6706   -1.8408 C   0  0  0  0  0  0  0  0  0  0  0  0
    0.0858    1.0148    0.5518 C   0  0  0  0  0  0  0  0  0  0  0  0
    0.4109    1.5881   -0.4900 O   0  0  0  0  0  0  0  0  0  0  0  0
    1.0158    0.5731    1.4930 N   0  0  0  0  0  0  0  0  0  0  0  0
    0.7593   -0.5019    2.4596 C   0  0  0  0  0  0  0  0  0  0  0  0
    1.9434   -1.4568    2.5716 C   0  0  0  0  0  0  0  0  0  0  0  0
    3.2510   -0.7450    2.9356 C   0  0  0  0  0  0  0  0  0  0  0  0
    3.2429    0.7460    2.5635 C   0  0  0  0  0  0  0  0  0  0  0  0
    2.4091    0.9745    1.2971 C   0  0  0  0  0  0  0  0  0  0  0  0
    4.6445    1.3858    2.4893 C   0  0  0  0  0  0  0  0  0  0  0  0
    5.6011    0.8219    1.4341 C   0  0  0  0  0  0  0  0  0  0  0  0
    6.4867   -0.2822    1.9530 C   0  0  0  0  0  0  0  0  0  0  0  0
    6.6234   -0.6480    3.1072 O   0  0  0  0  0  0  0  0  0  0  0  0
    7.1862   -0.8687    0.9617 O   0  0  0  0  0  0  0  0  0  0  0  0
   -3.8655    0.1991    5.6084 H   0  0  0  0  0  0  0  0  0  0  0  0
   -2.2787    0.3311    4.8393 H   0  0  0  0  0  0  0  0  0  0  0  0
   -3.3869   -0.9631    4.3613 H   0  0  0  0  0  0  0  0  0  0  0  0
   -5.0135    0.7239    3.5164 H   0  0  0  0  0  0  0  0  0  0  0  0
   -4.4272    2.6183    4.9482 H   0  0  0  0  0  0  0  0  0  0  0  0
   -2.8549    2.8007    4.1594 H   0  0  0  0  0  0  0  0  0  0  0  0
   -4.3408    3.1082    3.2488 H   0  0  0  0  0  0  0  0  0  0  0  0
   -1.3218    1.3794    2.8337 H   0  0  0  0  0  0  0  0  0  0  0  0
   -0.7911    0.7527   -1.5974 H   0  0  0  0  0  0  0  0  0  0  0  0
   -5.1459    0.1462    1.3044 H   0  0  0  0  0  0  0  0  0  0  0  0
   -5.4668   -0.4570   -0.8267 H   0  0  0  0  0  0  0  0  0  0  0  0
   -4.9202    1.7075   -1.9246 H   0  0  0  0  0  0  0  0  0  0  0  0
   -5.3899    0.4417   -3.0692 H   0  0  0  0  0  0  0  0  0  0  0  0
   -3.6937    0.9021   -2.9126 H   0  0  0  0  0  0  0  0  0  0  0  0
   -3.9579   -2.4222   -1.0503 H   0  0  0  0  0  0  0  0  0  0  0  0
   -3.1136   -1.6258   -2.3855 H   0  0  0  0  0  0  0  0  0  0  0  0
   -4.8244   -2.0262   -2.5422 H   0  0  0  0  0  0  0  0  0  0  0  0
    0.5657   -0.0311    3.4300 H   0  0  0  0  0  0  0  0  0  0  0  0
   -0.1294   -1.0706    2.1709 H   0  0  0  0  0  0  0  0  0  0  0  0
    1.7315   -2.2416    3.3063 H   0  0  0  0  0  0  0  0  0  0  0  0
    2.0782   -1.9617    1.6059 H   0  0  0  0  0  0  0  0  0  0  0  0
    4.0643   -1.2817    2.4390 H   0  0  0  0  0  0  0  0  0  0  0  0
    3.4337   -0.8382    4.0133 H   0  0  0  0  0  0  0  0  0  0  0  0
    2.7242    1.2713    3.3801 H   0  0  0  0  0  0  0  0  0  0  0  0
    2.4286    2.0316    1.0064 H   0  0  0  0  0  0  0  0  0  0  0  0
    2.7977    0.3940    0.4521 H   0  0  0  0  0  0  0  0  0  0  0  0
    5.1047    1.3445    3.4843 H   0  0  0  0  0  0  0  0  0  0  0  0
    4.5029    2.4531    2.2714 H   0  0  0  0  0  0  0  0  0  0  0  0
    6.2738    1.6256    1.1110 H   0  0  0  0  0  0  0  0  0  0  0  0
    5.0574    0.4606    0.5569 H   0  0  0  0  0  0  0  0  0  0  0  0
    7.7266   -1.5474    1.4181 H   0  0  0  0  0  0  0  0  0  0  0  0
  1  2  1  0
  2  3  1  0
  2  4  1  0
  4  5  2  0
  5  6  1  0
  6  7  2  0
  7  8  1  0
  7  9  1  0
  9 10  2  0
  9 11  1  0
 11 12  1  0
 11 13  1  0
  6 14  1  0
 14 15  2  0
 14 16  1  0
 16 17  1  0
 17 18  1  0
 18 19  1  0
 19 20  1  0
 20 21  1  0
 20 22  1  0
 22 23  1  0
 23 24  1  0
 24 25  2  0
 24 26  1  0
 10  4  1  0
 21 16  1  0
  1 27  1  0
  1 28  1  0
  1 29  1  0
  2 30  1  0
  3 31  1  0
  3 32  1  0
  3 33  1  0
  5 34  1  0
  8 35  1  0
 10 36  1  0
 11 37  1  0
 12 38  1  0
 12 39  1  0
 12 40  1  0
 13 41  1  0
 13 42  1  0
 13 43  1  0
 17 44  1  0
 17 45  1  0
 18 46  1  0
 18 47  1  0
 19 48  1  0
 19 49  1  0
 20 50  1  0
 21 51  1  0
 21 52  1  0
 22 53  1  0
 22 54  1  0
 23 55  1  0
 23 56  1  0
 26 57  1  0
M  END
>  <mol_id>  (15) 
Z2295663126

>  <drugclip_rank>  (15) 
15

>  <conformer>  (15) 
38

>  <align_rmsd>  (15) 
0.796

$$$$
V027-3760
     RDKit          3D

 67 70  0  0  0  0  0  0  0  0999 V2000
    1.6253    3.4791    0.0264 C   0  0  0  0  0  0  0  0  0  0  0  0
    2.0449    4.7972   -0.1821 C   0  0  0  0  0  0  0  0  0  0  0  0
    3.3015    5.2120    0.2500 C   0  0  0  0  0  0  0  0  0  0  0  0
    4.1552    4.3053    0.8735 C   0  0  0  0  0  0  0  0  0  0  0  0
    3.7408    2.9883    1.0853 C   0  0  0  0  0  0  0  0  0  0  0  0
    2.4622    2.5634    0.6804 C   0  0  0  0  0  0  0  0  0  0  0  0
    2.0664    1.2137    0.9443 N   0  0  0  0  0  0  0  0  0  0  0  0
    2.9772    0.3442    1.4558 N   0  0  0  0  0  0  0  0  0  0  0  0
    2.3694   -0.8511    1.4868 C   0  0  0  0  0  0  0  0  0  0  0  0
    3.0638   -2.0655    1.9364 C   0  0  0  0  0  0  0  0  0  0  0  0
    2.5491   -3.1694    2.0686 O   0  0  0  0  0  0  0  0  0  0  0  0
    4.3770   -1.9056    2.2293 O   0  0  0  0  0  0  0  0  0  0  0  0
    1.0125   -0.7431    1.0665 C   0  0  0  0  0  0  0  0  0  0  0  0
    0.0286   -1.8524    0.9616 C   0  0  0  0  0  0  0  0  0  0  0  0
    0.8201    0.6065    0.8137 C   0  0  0  0  0  0  0  0  0  0  0  0
   -0.2652    1.3053    0.4705 O   0  0  0  0  0  0  0  0  0  0  0  0
   -1.4886    1.0815    1.0498 C   0  0  0  0  0  0  0  0  0  0  0  0
   -2.6443    1.1751    0.2744 C   0  0  0  0  0  0  0  0  0  0  0  0
   -2.5259    1.4929   -1.4638 S   0  0  0  0  0  0  0  0  0  0  0  0
   -1.3999    0.7773   -2.0163 O   0  0  0  0  0  0  0  0  0  0  0  0
   -2.6705    2.9226   -1.6240 O   0  0  0  0  0  0  0  0  0  0  0  0
   -3.9238    0.8251   -2.1064 N   0  0  0  0  0  0  0  0  0  0  0  0
   -4.0839   -0.5816   -2.5348 C   0  0  0  0  0  0  0  0  0  0  0  0
   -3.4338   -1.5881   -1.5820 C   0  0  0  0  0  0  0  0  0  0  0  0
   -3.5233   -0.7363   -3.9548 C   0  0  0  0  0  0  0  0  0  0  0  0
   -5.5984   -0.8556   -2.5665 C   0  0  0  0  0  0  0  0  0  0  0  0
   -1.6103    0.8716    2.4269 C   0  0  0  0  0  0  0  0  0  0  0  0
   -2.8733    0.7167    3.0074 C   0  0  0  0  0  0  0  0  0  0  0  0
   -4.0338    0.7857    2.2274 C   0  0  0  0  0  0  0  0  0  0  0  0
   -3.9121    1.0339    0.8610 C   0  0  0  0  0  0  0  0  0  0  0  0
   -5.2654    0.6054    2.8895 N   0  0  0  0  0  0  0  0  0  0  0  0
   -6.5283    0.5087    2.3227 C   0  0  0  0  0  0  0  0  0  0  0  0
   -6.7643    0.5668    1.1156 O   0  0  0  0  0  0  0  0  0  0  0  0
   -7.6370    0.2753    3.3868 C   0  0  0  0  0  0  0  0  0  0  0  0
   -7.5360   -1.0052    4.2646 C   0  0  0  0  0  0  0  0  0  0  0  0
   -9.0727   -1.0874    4.2118 C   0  0  0  0  0  0  0  0  0  0  0  0
   -8.9950   -0.3050    2.8887 C   0  0  0  0  0  0  0  0  0  0  0  0
    0.6469    3.2107   -0.3578 H   0  0  0  0  0  0  0  0  0  0  0  0
    1.3881    5.4983   -0.6912 H   0  0  0  0  0  0  0  0  0  0  0  0
    3.6223    6.2367    0.0970 H   0  0  0  0  0  0  0  0  0  0  0  0
    5.1423    4.6214    1.2021 H   0  0  0  0  0  0  0  0  0  0  0  0
    4.4232    2.3074    1.5885 H   0  0  0  0  0  0  0  0  0  0  0  0
    4.6619   -2.7917    2.5274 H   0  0  0  0  0  0  0  0  0  0  0  0
    0.4742   -2.7230    0.4703 H   0  0  0  0  0  0  0  0  0  0  0  0
   -0.8446   -1.5688    0.3677 H   0  0  0  0  0  0  0  0  0  0  0  0
   -0.3141   -2.1486    1.9584 H   0  0  0  0  0  0  0  0  0  0  0  0
   -4.5003    1.5239   -2.5774 H   0  0  0  0  0  0  0  0  0  0  0  0
   -3.7954   -1.4738   -0.5540 H   0  0  0  0  0  0  0  0  0  0  0  0
   -3.6539   -2.6167   -1.8926 H   0  0  0  0  0  0  0  0  0  0  0  0
   -2.3435   -1.4950   -1.5692 H   0  0  0  0  0  0  0  0  0  0  0  0
   -2.4444   -0.5493   -3.9916 H   0  0  0  0  0  0  0  0  0  0  0  0
   -3.9989   -0.0299   -4.6473 H   0  0  0  0  0  0  0  0  0  0  0  0
   -3.6943   -1.7495   -4.3371 H   0  0  0  0  0  0  0  0  0  0  0  0
   -5.8118   -1.8808   -2.8907 H   0  0  0  0  0  0  0  0  0  0  0  0
   -6.0482   -0.7179   -1.5756 H   0  0  0  0  0  0  0  0  0  0  0  0
   -6.1124   -0.1713   -3.2531 H   0  0  0  0  0  0  0  0  0  0  0  0
   -0.7276    0.8423    3.0620 H   0  0  0  0  0  0  0  0  0  0  0  0
   -2.9322    0.5462    4.0796 H   0  0  0  0  0  0  0  0  0  0  0  0
   -4.7913    1.1392    0.2332 H   0  0  0  0  0  0  0  0  0  0  0  0
   -5.2168    0.4775    3.8932 H   0  0  0  0  0  0  0  0  0  0  0  0
   -7.7873    1.1780    3.9967 H   0  0  0  0  0  0  0  0  0  0  0  0
   -7.1079   -0.8677    5.2597 H   0  0  0  0  0  0  0  0  0  0  0  0
   -7.0379   -1.8443    3.7670 H   0  0  0  0  0  0  0  0  0  0  0  0
   -9.5759   -0.5416    5.0180 H   0  0  0  0  0  0  0  0  0  0  0  0
   -9.4899   -2.0960    4.1449 H   0  0  0  0  0  0  0  0  0  0  0  0
   -9.7906    0.4263    2.7256 H   0  0  0  0  0  0  0  0  0  0  0  0
   -8.9096   -0.9484    2.0023 H   0  0  0  0  0  0  0  0  0  0  0  0
  1  2  2  0
  2  3  1  0
  3  4  2  0
  4  5  1  0
  5  6  2  0
  6  7  1  0
  7  8  1  0
  8  9  2  0
  9 10  1  0
 10 11  2  0
 10 12  1  0
  9 13  1  0
 13 14  1  0
 13 15  2  0
 15 16  1  0
 16 17  1  0
 17 18  2  0
 18 19  1  0
 19 20  2  0
 19 21  2  0
 19 22  1  0
 22 23  1  0
 23 24  1  0
 23 25  1  0
 23 26  1  0
 17 27  1  0
 27 28  2  0
 28 29  1  0
 29 30  2  0
 29 31  1  0
 31 32  1  0
 32 33  2  0
 32 34  1  0
 34 35  1  0
 35 36  1  0
 36 37  1  0
  6  1  1  0
 15  7  1  0
 30 18  1  0
 37 34  1  0
  1 38  1  0
  2 39  1  0
  3 40  1  0
  4 41  1  0
  5 42  1  0
 12 43  1  0
 14 44  1  0
 14 45  1  0
 14 46  1  0
 22 47  1  0
 24 48  1  0
 24 49  1  0
 24 50  1  0
 25 51  1  0
 25 52  1  0
 25 53  1  0
 26 54  1  0
 26 55  1  0
 26 56  1  0
 27 57  1  0
 28 58  1  0
 30 59  1  0
 31 60  1  0
 34 61  1  0
 35 62  1  0
 35 63  1  0
 36 64  1  0
 36 65  1  0
 37 66  1  0
 37 67  1  0
M  END
>  <mol_id>  (16) 
V027-3760

>  <drugclip_rank>  (16) 
16

>  <conformer>  (16) 
1

>  <align_rmsd>  (16) 
0.37

$$$$
V007-7771
     RDKit          3D

 68 69  0  0  0  0  0  0  0  0999 V2000
    2.3384   -2.9505    2.1572 O   0  0  0  0  0  0  0  0  0  0  0  0
    2.8434   -1.8596    1.9156 C   0  0  0  0  0  0  0  0  0  0  0  0
    4.1958   -1.7504    1.9131 O   0  0  0  0  0  0  0  0  0  0  0  0
    2.1075   -0.6210    1.6203 C   0  0  0  0  0  0  0  0  0  0  0  0
    0.6858   -0.4688    1.4623 C   0  0  0  0  0  0  0  0  0  0  0  0
   -0.3229   -1.5594    1.5137 C   0  0  0  0  0  0  0  0  0  0  0  0
    0.4929    0.8893    1.2405 C   0  0  0  0  0  0  0  0  0  0  0  0
    1.7523    1.4286    1.1834 N   0  0  0  0  0  0  0  0  0  0  0  0
    2.7360    0.5588    1.4636 N   0  0  0  0  0  0  0  0  0  0  0  0
    2.0919    2.8061    0.8748 C   0  0  0  0  0  0  0  0  0  0  0  0
    2.1766    3.6617    2.1264 C   0  0  0  0  0  0  0  0  0  0  0  0
   -0.5615    1.6880    1.0381 O   0  0  0  0  0  0  0  0  0  0  0  0
   -1.8283    1.2883    1.3648 C   0  0  0  0  0  0  0  0  0  0  0  0
   -2.8002    1.1280    0.3780 C   0  0  0  0  0  0  0  0  0  0  0  0
   -2.3519    1.3828   -1.3125 S   0  0  0  0  0  0  0  0  0  0  0  0
   -2.3123    2.8172   -1.5072 O   0  0  0  0  0  0  0  0  0  0  0  0
   -1.2247    0.5377   -1.6366 O   0  0  0  0  0  0  0  0  0  0  0  0
   -3.6749    0.8687   -2.2079 N   0  0  0  0  0  0  0  0  0  0  0  0
   -3.8300   -0.4892   -2.7808 C   0  0  0  0  0  0  0  0  0  0  0  0
   -5.3041   -0.6031   -3.2145 C   0  0  0  0  0  0  0  0  0  0  0  0
   -3.5364   -1.6089   -1.7788 C   0  0  0  0  0  0  0  0  0  0  0  0
   -2.9481   -0.6243   -4.0269 C   0  0  0  0  0  0  0  0  0  0  0  0
   -2.1773    1.1508    2.7086 C   0  0  0  0  0  0  0  0  0  0  0  0
   -3.4857    0.8097    3.0577 C   0  0  0  0  0  0  0  0  0  0  0  0
   -4.4597    0.6112    2.0704 C   0  0  0  0  0  0  0  0  0  0  0  0
   -4.1148    0.7939    0.7298 C   0  0  0  0  0  0  0  0  0  0  0  0
   -5.7500    0.2432    2.5042 N   0  0  0  0  0  0  0  0  0  0  0  0
   -6.7901   -0.2298    1.7178 C   0  0  0  0  0  0  0  0  0  0  0  0
   -6.7513   -0.4127    0.5032 O   0  0  0  0  0  0  0  0  0  0  0  0
   -8.0670   -0.5599    2.5009 C   0  0  0  0  0  0  0  0  0  0  0  0
   -8.6179    0.7208    3.1558 C   0  0  0  0  0  0  0  0  0  0  0  0
  -10.0463    0.5687    3.6633 C   0  0  0  0  0  0  0  0  0  0  0  0
   -7.8449   -1.6959    3.5149 C   0  0  0  0  0  0  0  0  0  0  0  0
   -7.3715   -2.9901    2.8623 C   0  0  0  0  0  0  0  0  0  0  0  0
    4.5022   -2.6570    2.1095 H   0  0  0  0  0  0  0  0  0  0  0  0
   -1.1996   -1.3295    0.9040 H   0  0  0  0  0  0  0  0  0  0  0  0
    0.0845   -2.4924    1.1146 H   0  0  0  0  0  0  0  0  0  0  0  0
   -0.6500   -1.7310    2.5451 H   0  0  0  0  0  0  0  0  0  0  0  0
    1.3365    3.1973    0.1841 H   0  0  0  0  0  0  0  0  0  0  0  0
    3.0514    2.7999    0.3447 H   0  0  0  0  0  0  0  0  0  0  0  0
    2.4261    4.6947    1.8673 H   0  0  0  0  0  0  0  0  0  0  0  0
    2.9458    3.2826    2.8091 H   0  0  0  0  0  0  0  0  0  0  0  0
    1.2231    3.6671    2.6678 H   0  0  0  0  0  0  0  0  0  0  0  0
   -4.0446    1.6376   -2.7671 H   0  0  0  0  0  0  0  0  0  0  0  0
   -5.9777   -0.5089   -2.3529 H   0  0  0  0  0  0  0  0  0  0  0  0
   -5.5756    0.1972   -3.9190 H   0  0  0  0  0  0  0  0  0  0  0  0
   -5.5055   -1.5678   -3.6950 H   0  0  0  0  0  0  0  0  0  0  0  0
   -2.5046   -1.5960   -1.4203 H   0  0  0  0  0  0  0  0  0  0  0  0
   -4.1925   -1.5492   -0.9040 H   0  0  0  0  0  0  0  0  0  0  0  0
   -3.6997   -2.5913   -2.2390 H   0  0  0  0  0  0  0  0  0  0  0  0
   -3.1153    0.2133   -4.7177 H   0  0  0  0  0  0  0  0  0  0  0  0
   -3.1649   -1.5527   -4.5689 H   0  0  0  0  0  0  0  0  0  0  0  0
   -1.8827   -0.6320   -3.7781 H   0  0  0  0  0  0  0  0  0  0  0  0
   -1.4336    1.3064    3.4864 H   0  0  0  0  0  0  0  0  0  0  0  0
   -3.7255    0.6957    4.1117 H   0  0  0  0  0  0  0  0  0  0  0  0
   -4.8635    0.7015   -0.0482 H   0  0  0  0  0  0  0  0  0  0  0  0
   -5.8920    0.2263    3.5059 H   0  0  0  0  0  0  0  0  0  0  0  0
   -8.8012   -0.9013    1.7579 H   0  0  0  0  0  0  0  0  0  0  0  0
   -7.9751    1.0393    3.9851 H   0  0  0  0  0  0  0  0  0  0  0  0
   -8.6008    1.5343    2.4184 H   0  0  0  0  0  0  0  0  0  0  0  0
  -10.7027    0.1549    2.8895 H   0  0  0  0  0  0  0  0  0  0  0  0
  -10.0923   -0.0854    4.5407 H   0  0  0  0  0  0  0  0  0  0  0  0
  -10.4432    1.5465    3.9582 H   0  0  0  0  0  0  0  0  0  0  0  0
   -8.7816   -1.9116    4.0404 H   0  0  0  0  0  0  0  0  0  0  0  0
   -7.1195   -1.4017    4.2817 H   0  0  0  0  0  0  0  0  0  0  0  0
   -6.3994   -2.8660    2.3765 H   0  0  0  0  0  0  0  0  0  0  0  0
   -7.2698   -3.7763    3.6167 H   0  0  0  0  0  0  0  0  0  0  0  0
   -8.0908   -3.3359    2.1117 H   0  0  0  0  0  0  0  0  0  0  0  0
  1  2  2  0
  2  3  1  0
  2  4  1  0
  4  5  1  0
  5  6  1  0
  5  7  2  0
  7  8  1  0
  8  9  1  0
  8 10  1  0
 10 11  1  0
  7 12  1  0
 12 13  1  0
 13 14  2  0
 14 15  1  0
 15 16  2  0
 15 17  2  0
 15 18  1  0
 18 19  1  0
 19 20  1  0
 19 21  1  0
 19 22  1  0
 13 23  1  0
 23 24  2  0
 24 25  1  0
 25 26  2  0
 25 27  1  0
 27 28  1  0
 28 29  2  0
 28 30  1  0
 30 31  1  0
 31 32  1  0
 30 33  1  0
 33 34  1  0
  9  4  2  0
 26 14  1  0
  3 35  1  0
  6 36  1  0
  6 37  1  0
  6 38  1  0
 10 39  1  0
 10 40  1  0
 11 41  1  0
 11 42  1  0
 11 43  1  0
 18 44  1  0
 20 45  1  0
 20 46  1  0
 20 47  1  0
 21 48  1  0
 21 49  1  0
 21 50  1  0
 22 51  1  0
 22 52  1  0
 22 53  1  0
 23 54  1  0
 24 55  1  0
 26 56  1  0
 27 57  1  0
 30 58  1  0
 31 59  1  0
 31 60  1  0
 32 61  1  0
 32 62  1  0
 32 63  1  0
 33 64  1  0
 33 65  1  0
 34 66  1  0
 34 67  1  0
 34 68  1  0
M  END
>  <mol_id>  (17) 
V007-7771

>  <drugclip_rank>  (17) 
17

>  <conformer>  (17) 
6

>  <align_rmsd>  (17) 
0.401

$$$$
FCG2296016965
     RDKit          3D

 54 54  0  0  0  0  0  0  0  0999 V2000
   -1.9435    2.2175    2.4970 C   0  0  0  0  0  0  0  0  0  0  0  0
   -2.9570    1.2691    1.8028 C   0  0  0  0  0  0  0  0  0  0  0  0
   -3.5141    0.3524    2.9138 C   0  0  0  0  0  0  0  0  0  0  0  0
   -4.0822    2.1776    1.2574 C   0  0  0  0  0  0  0  0  0  0  0  0
   -2.3367    0.4248    0.6618 C   0  0  0  0  0  0  0  0  0  0  0  0
   -0.9656    0.5171    0.3622 C   0  0  0  0  0  0  0  0  0  0  0  0
   -0.3928   -0.2252   -0.6764 C   0  0  0  0  0  0  0  0  0  0  0  0
   -1.1959   -1.0505   -1.4710 C   0  0  0  0  0  0  0  0  0  0  0  0
   -2.5749   -1.1890   -1.2358 C   0  0  0  0  0  0  0  0  0  0  0  0
   -3.1021   -0.4576   -0.1424 C   0  0  0  0  0  0  0  0  0  0  0  0
   -4.4262   -0.6132    0.1620 O   0  0  0  0  0  0  0  0  0  0  0  0
   -3.4452   -2.0824   -2.1536 C   0  0  0  0  0  0  0  0  0  0  0  0
   -2.6664   -2.6855   -3.3532 C   0  0  0  0  0  0  0  0  0  0  0  0
   -4.0115   -3.2815   -1.3633 C   0  0  0  0  0  0  0  0  0  0  0  0
   -4.6043   -1.2671   -2.7712 C   0  0  0  0  0  0  0  0  0  0  0  0
    1.0623   -0.1395   -0.9913 C   0  0  0  0  0  0  0  0  0  0  0  0
    1.4664   -0.3652   -2.1262 O   0  0  0  0  0  0  0  0  0  0  0  0
    1.8992    0.1504    0.0648 N   0  0  0  0  0  0  0  0  0  0  0  0
    3.3503    0.1146   -0.0758 C   0  0  0  0  0  0  0  0  0  0  0  0
    3.9581   -1.2330    0.3526 C   0  0  0  0  0  0  0  0  0  0  0  0
    3.5479   -2.3981   -0.5436 C   0  0  0  0  0  0  0  0  0  0  0  0
    3.5169   -1.5174    1.6958 O   0  0  0  0  0  0  0  0  0  0  0  0
    5.4863   -1.1062    0.3194 C   0  0  0  0  0  0  0  0  0  0  0  0
    6.1669   -0.4508   -0.4505 O   0  0  0  0  0  0  0  0  0  0  0  0
    6.0769   -1.8650    1.2764 O   0  0  0  0  0  0  0  0  0  0  0  0
   -2.4269    2.8029    3.2889 H   0  0  0  0  0  0  0  0  0  0  0  0
   -1.5110    2.9349    1.7897 H   0  0  0  0  0  0  0  0  0  0  0  0
   -1.1256    1.6607    2.9694 H   0  0  0  0  0  0  0  0  0  0  0  0
   -3.8583    0.9396    3.7737 H   0  0  0  0  0  0  0  0  0  0  0  0
   -4.3703   -0.2424    2.5857 H   0  0  0  0  0  0  0  0  0  0  0  0
   -2.7461   -0.3430    3.2725 H   0  0  0  0  0  0  0  0  0  0  0  0
   -4.9420    1.6151    0.8834 H   0  0  0  0  0  0  0  0  0  0  0  0
   -3.7168    2.8054    0.4361 H   0  0  0  0  0  0  0  0  0  0  0  0
   -4.4652    2.8437    2.0399 H   0  0  0  0  0  0  0  0  0  0  0  0
   -0.3231    1.1942    0.9149 H   0  0  0  0  0  0  0  0  0  0  0  0
   -0.7055   -1.5800   -2.2842 H   0  0  0  0  0  0  0  0  0  0  0  0
   -4.4701   -1.3996    0.7325 H   0  0  0  0  0  0  0  0  0  0  0  0
   -3.3248   -3.2883   -3.9907 H   0  0  0  0  0  0  0  0  0  0  0  0
   -2.2346   -1.9033   -3.9887 H   0  0  0  0  0  0  0  0  0  0  0  0
   -1.8580   -3.3472   -3.0207 H   0  0  0  0  0  0  0  0  0  0  0  0
   -4.5326   -3.9810   -2.0280 H   0  0  0  0  0  0  0  0  0  0  0  0
   -3.2107   -3.8358   -0.8598 H   0  0  0  0  0  0  0  0  0  0  0  0
   -4.7369   -2.9840   -0.6020 H   0  0  0  0  0  0  0  0  0  0  0  0
   -5.1651   -1.8670   -3.4979 H   0  0  0  0  0  0  0  0  0  0  0  0
   -5.3309   -0.9270   -2.0284 H   0  0  0  0  0  0  0  0  0  0  0  0
   -4.2262   -0.3803   -3.2936 H   0  0  0  0  0  0  0  0  0  0  0  0
    1.5512    0.0333    1.0087 H   0  0  0  0  0  0  0  0  0  0  0  0
    3.7239    0.9126    0.5770 H   0  0  0  0  0  0  0  0  0  0  0  0
    3.6289    0.3675   -1.1052 H   0  0  0  0  0  0  0  0  0  0  0  0
    3.7949   -2.2058   -1.5929 H   0  0  0  0  0  0  0  0  0  0  0  0
    2.4765   -2.6088   -0.4622 H   0  0  0  0  0  0  0  0  0  0  0  0
    4.0629   -3.3185   -0.2436 H   0  0  0  0  0  0  0  0  0  0  0  0
    4.1531   -2.1743    2.0432 H   0  0  0  0  0  0  0  0  0  0  0  0
    7.0361   -1.7015    1.1438 H   0  0  0  0  0  0  0  0  0  0  0  0
  1  2  1  0
  2  3  1  0
  2  4  1  0
  2  5  1  0
  5  6  2  0
  6  7  1  0
  7  8  2  0
  8  9  1  0
  9 10  2  0
 10 11  1  0
  9 12  1  0
 12 13  1  0
 12 14  1  0
 12 15  1  0
  7 16  1  0
 16 17  2  0
 16 18  1  0
 18 19  1  0
 19 20  1  0
 20 21  1  0
 20 22  1  0
 20 23  1  0
 23 24  2  0
 23 25  1  0
 10  5  1  0
  1 26  1  0
  1 27  1  0
  1 28  1  0
  3 29  1  0
  3 30  1  0
  3 31  1  0
  4 32  1  0
  4 33  1  0
  4 34  1  0
  6 35  1  0
  8 36  1  0
 11 37  1  0
 13 38  1  0
 13 39  1  0
 13 40  1  0
 14 41  1  0
 14 42  1  0
 14 43  1  0
 15 44  1  0
 15 45  1  0
 15 46  1  0
 18 47  1  0
 19 48  1  0
 19 49  1  0
 21 50  1  0
 21 51  1  0
 21 52  1  0
 22 53  1  0
 25 54  1  0
M  END
>  <mol_id>  (18) 
FCG2296016965

>  <drugclip_rank>  (18) 
18

>  <conformer>  (18) 
2

>  <align_rmsd>  (18) 
1.005

$$$$
V027-3820
     RDKit          3D

 69 71  0  0  0  0  0  0  0  0999 V2000
   -9.2206   -1.2579    4.2454 C   0  0  0  0  0  0  0  0  0  0  0  0
   -7.9569   -0.8916    3.4791 C   0  0  0  0  0  0  0  0  0  0  0  0
   -7.7575    0.6257    3.3279 C   0  0  0  0  0  0  0  0  0  0  0  0
   -7.5761    1.3417    4.6685 C   0  0  0  0  0  0  0  0  0  0  0  0
   -6.6079    0.8950    2.3504 C   0  0  0  0  0  0  0  0  0  0  0  0
   -6.8526    1.2239    1.1922 O   0  0  0  0  0  0  0  0  0  0  0  0
   -5.3495    0.6816    2.8827 N   0  0  0  0  0  0  0  0  0  0  0  0
   -4.1064    0.8079    2.2289 C   0  0  0  0  0  0  0  0  0  0  0  0
   -3.9629    1.0593    0.8635 C   0  0  0  0  0  0  0  0  0  0  0  0
   -2.9565    0.6783    3.0182 C   0  0  0  0  0  0  0  0  0  0  0  0
   -1.6837    0.8190    2.4560 C   0  0  0  0  0  0  0  0  0  0  0  0
   -1.5409    1.0503    1.0863 C   0  0  0  0  0  0  0  0  0  0  0  0
   -2.6833    1.1715    0.2944 C   0  0  0  0  0  0  0  0  0  0  0  0
   -2.5244    1.4947   -1.4408 S   0  0  0  0  0  0  0  0  0  0  0  0
   -1.3819    0.7824   -1.9659 O   0  0  0  0  0  0  0  0  0  0  0  0
   -2.6640    2.9261   -1.5985 O   0  0  0  0  0  0  0  0  0  0  0  0
   -3.9066    0.8262   -2.1222 N   0  0  0  0  0  0  0  0  0  0  0  0
   -4.0190   -0.5646   -2.6120 C   0  0  0  0  0  0  0  0  0  0  0  0
   -5.5244   -0.8464   -2.7719 C   0  0  0  0  0  0  0  0  0  0  0  0
   -3.3496   -0.6795   -3.9856 C   0  0  0  0  0  0  0  0  0  0  0  0
   -3.4404   -1.5918   -1.6347 C   0  0  0  0  0  0  0  0  0  0  0  0
   -0.3083    1.2767    0.5254 O   0  0  0  0  0  0  0  0  0  0  0  0
    0.7782    0.5767    0.8552 C   0  0  0  0  0  0  0  0  0  0  0  0
    0.9692   -0.7595    1.1763 C   0  0  0  0  0  0  0  0  0  0  0  0
   -0.0263   -1.8658    1.1656 C   0  0  0  0  0  0  0  0  0  0  0  0
    2.3423   -0.8563    1.5486 C   0  0  0  0  0  0  0  0  0  0  0  0
    3.0414   -2.0497    2.0448 C   0  0  0  0  0  0  0  0  0  0  0  0
    2.5185   -3.1357    2.2617 O   0  0  0  0  0  0  0  0  0  0  0  0
    4.3707   -1.8958    2.2663 O   0  0  0  0  0  0  0  0  0  0  0  0
    2.9653    0.3225    1.3930 N   0  0  0  0  0  0  0  0  0  0  0  0
    2.0392    1.1688    0.8710 N   0  0  0  0  0  0  0  0  0  0  0  0
    2.4400    2.4875    0.4760 C   0  0  0  0  0  0  0  0  0  0  0  0
    1.5799    3.3674   -0.1942 C   0  0  0  0  0  0  0  0  0  0  0  0
    2.0130    4.6529   -0.5464 C   0  0  0  0  0  0  0  0  0  0  0  0
    3.2990    5.0740   -0.2256 C   0  0  0  0  0  0  0  0  0  0  0  0
    4.1727    4.2007    0.4146 C   0  0  0  0  0  0  0  0  0  0  0  0
    3.7519    2.9132    0.7555 C   0  0  0  0  0  0  0  0  0  0  0  0
   -9.4197   -2.3317    4.1441 H   0  0  0  0  0  0  0  0  0  0  0  0
  -10.0923   -0.7145    3.8621 H   0  0  0  0  0  0  0  0  0  0  0  0
   -9.1188   -1.0385    5.3145 H   0  0  0  0  0  0  0  0  0  0  0  0
   -7.0927   -1.3492    3.9773 H   0  0  0  0  0  0  0  0  0  0  0  0
   -8.0109   -1.3459    2.4792 H   0  0  0  0  0  0  0  0  0  0  0  0
   -8.6530    1.0625    2.8599 H   0  0  0  0  0  0  0  0  0  0  0  0
   -7.2315    2.3726    4.5231 H   0  0  0  0  0  0  0  0  0  0  0  0
   -8.5246    1.3816    5.2157 H   0  0  0  0  0  0  0  0  0  0  0  0
   -6.8503    0.8343    5.3135 H   0  0  0  0  0  0  0  0  0  0  0  0
   -5.3050    0.4475    3.8668 H   0  0  0  0  0  0  0  0  0  0  0  0
   -4.8301    1.1785    0.2221 H   0  0  0  0  0  0  0  0  0  0  0  0
   -3.0312    0.4968    4.0878 H   0  0  0  0  0  0  0  0  0  0  0  0
   -0.8093    0.7637    3.1001 H   0  0  0  0  0  0  0  0  0  0  0  0
   -4.4611    1.5357   -2.6054 H   0  0  0  0  0  0  0  0  0  0  0  0
   -5.9896   -0.1390   -3.4727 H   0  0  0  0  0  0  0  0  0  0  0  0
   -5.7020   -1.8616   -3.1536 H   0  0  0  0  0  0  0  0  0  0  0  0
   -6.0524   -0.7496   -1.8136 H   0  0  0  0  0  0  0  0  0  0  0  0
   -3.5354   -1.6637   -4.4352 H   0  0  0  0  0  0  0  0  0  0  0  0
   -3.7349    0.0771   -4.6796 H   0  0  0  0  0  0  0  0  0  0  0  0
   -2.2639   -0.5482   -3.9275 H   0  0  0  0  0  0  0  0  0  0  0  0
   -3.6287   -2.6128   -1.9875 H   0  0  0  0  0  0  0  0  0  0  0  0
   -2.3580   -1.4939   -1.5203 H   0  0  0  0  0  0  0  0  0  0  0  0
   -3.8903   -1.5028   -0.6403 H   0  0  0  0  0  0  0  0  0  0  0  0
   -0.3645   -2.0846    2.1832 H   0  0  0  0  0  0  0  0  0  0  0  0
    0.4080   -2.7765    0.7422 H   0  0  0  0  0  0  0  0  0  0  0  0
   -0.9003   -1.6231    0.5539 H   0  0  0  0  0  0  0  0  0  0  0  0
    4.6532   -2.7778    2.5754 H   0  0  0  0  0  0  0  0  0  0  0  0
    0.5702    3.0948   -0.4841 H   0  0  0  0  0  0  0  0  0  0  0  0
    1.3307    5.3278   -1.0614 H   0  0  0  0  0  0  0  0  0  0  0  0
    3.6287    6.0741   -0.4838 H   0  0  0  0  0  0  0  0  0  0  0  0
    5.1922    4.5144    0.6355 H   0  0  0  0  0  0  0  0  0  0  0  0
    4.4585    2.2575    1.2600 H   0  0  0  0  0  0  0  0  0  0  0  0
  1  2  1  0
  2  3  1  0
  3  4  1  0
  3  5  1  0
  5  6  2  0
  5  7  1  0
  7  8  1  0
  8  9  2  0
  8 10  1  0
 10 11  2  0
 11 12  1  0
 12 13  2  0
 13 14  1  0
 14 15  2  0
 14 16  2  0
 14 17  1  0
 17 18  1  0
 18 19  1  0
 18 20  1  0
 18 21  1  0
 12 22  1  0
 22 23  1  0
 23 24  2  0
 24 25  1  0
 24 26  1  0
 26 27  1  0
 27 28  2  0
 27 29  1  0
 26 30  2  0
 30 31  1  0
 31 32  1  0
 32 33  2  0
 33 34  1  0
 34 35  2  0
 35 36  1  0
 36 37  2  0
 13  9  1  0
 31 23  1  0
 37 32  1  0
  1 38  1  0
  1 39  1  0
  1 40  1  0
  2 41  1  0
  2 42  1  0
  3 43  1  0
  4 44  1  0
  4 45  1  0
  4 46  1  0
  7 47  1  0
  9 48  1  0
 10 49  1  0
 11 50  1  0
 17 51  1  0
 19 52  1  0
 19 53  1  0
 19 54  1  0
 20 55  1  0
 20 56  1  0
 20 57  1  0
 21 58  1  0
 21 59  1  0
 21 60  1  0
 25 61  1  0
 25 62  1  0
 25 63  1  0
 29 64  1  0
 33 65  1  0
 34 66  1  0
 35 67  1  0
 36 68  1  0
 37 69  1  0
M  END
>  <mol_id>  (19) 
V027-3820

>  <drugclip_rank>  (19) 
19

>  <conformer>  (19) 
18

>  <align_rmsd>  (19) 
0.385

$$$$
V027-3772
     RDKit          3D

 69 71  0  0  0  0  0  0  0  0999 V2000
   -9.0039    2.8296    3.2916 C   0  0  0  0  0  0  0  0  0  0  0  0
   -7.8196    3.6673    3.7793 C   0  0  0  0  0  0  0  0  0  0  0  0
   -8.2267    4.4629    5.0211 C   0  0  0  0  0  0  0  0  0  0  0  0
   -6.5969    2.7876    4.0933 C   0  0  0  0  0  0  0  0  0  0  0  0
   -5.8193    2.3558    2.8550 C   0  0  0  0  0  0  0  0  0  0  0  0
   -6.2105    2.5868    1.7172 O   0  0  0  0  0  0  0  0  0  0  0  0
   -4.6508    1.6893    3.1990 N   0  0  0  0  0  0  0  0  0  0  0  0
   -3.6151    1.2774    2.3351 C   0  0  0  0  0  0  0  0  0  0  0  0
   -3.6003    1.5303    0.9653 C   0  0  0  0  0  0  0  0  0  0  0  0
   -2.5316    0.6020    2.9040 C   0  0  0  0  0  0  0  0  0  0  0  0
   -1.4387    0.2095    2.1211 C   0  0  0  0  0  0  0  0  0  0  0  0
   -1.4080    0.4895    0.7492 C   0  0  0  0  0  0  0  0  0  0  0  0
   -2.5096    1.1263    0.1747 C   0  0  0  0  0  0  0  0  0  0  0  0
   -2.5737    1.5030   -1.5576 S   0  0  0  0  0  0  0  0  0  0  0  0
   -2.4600    2.9426   -1.6608 O   0  0  0  0  0  0  0  0  0  0  0  0
   -1.7007    0.6299   -2.3056 O   0  0  0  0  0  0  0  0  0  0  0  0
   -4.1564    1.1375   -1.9771 N   0  0  0  0  0  0  0  0  0  0  0  0
   -4.6389   -0.1972   -2.3879 C   0  0  0  0  0  0  0  0  0  0  0  0
   -4.0974   -1.3280   -1.5100 C   0  0  0  0  0  0  0  0  0  0  0  0
   -6.1721   -0.1673   -2.2464 C   0  0  0  0  0  0  0  0  0  0  0  0
   -4.2857   -0.4291   -3.8610 C   0  0  0  0  0  0  0  0  0  0  0  0
   -0.3354    0.1757   -0.0515 O   0  0  0  0  0  0  0  0  0  0  0  0
    0.8504   -0.1554    0.4606 C   0  0  0  0  0  0  0  0  0  0  0  0
    1.4473   -1.3993    0.5236 C   0  0  0  0  0  0  0  0  0  0  0  0
    0.9213   -2.6775   -0.0111 C   0  0  0  0  0  0  0  0  0  0  0  0
    2.6521   -1.1941    1.2539 C   0  0  0  0  0  0  0  0  0  0  0  0
    3.6376   -2.2170    1.6280 C   0  0  0  0  0  0  0  0  0  0  0  0
    3.5576   -3.4090    1.3556 O   0  0  0  0  0  0  0  0  0  0  0  0
    4.7021   -1.7676    2.3401 O   0  0  0  0  0  0  0  0  0  0  0  0
    2.7727    0.0928    1.6269 N   0  0  0  0  0  0  0  0  0  0  0  0
    1.7554    0.7510    1.0071 N   0  0  0  0  0  0  0  0  0  0  0  0
    1.7378    2.1787    1.0037 C   0  0  0  0  0  0  0  0  0  0  0  0
    0.9063    2.9019    0.1395 C   0  0  0  0  0  0  0  0  0  0  0  0
    0.9036    4.2983    0.1630 C   0  0  0  0  0  0  0  0  0  0  0  0
    1.7499    4.9861    1.0276 C   0  0  0  0  0  0  0  0  0  0  0  0
    2.6048    4.2784    1.8695 C   0  0  0  0  0  0  0  0  0  0  0  0
    2.6048    2.8803    1.8545 C   0  0  0  0  0  0  0  0  0  0  0  0
   -9.8527    3.4759    3.0423 H   0  0  0  0  0  0  0  0  0  0  0  0
   -9.3351    2.1248    4.0620 H   0  0  0  0  0  0  0  0  0  0  0  0
   -8.7508    2.2564    2.3960 H   0  0  0  0  0  0  0  0  0  0  0  0
   -7.5565    4.3906    2.9959 H   0  0  0  0  0  0  0  0  0  0  0  0
   -8.4901    3.7985    5.8514 H   0  0  0  0  0  0  0  0  0  0  0  0
   -7.4089    5.1128    5.3472 H   0  0  0  0  0  0  0  0  0  0  0  0
   -9.0892    5.1058    4.8090 H   0  0  0  0  0  0  0  0  0  0  0  0
   -6.8985    1.8910    4.6484 H   0  0  0  0  0  0  0  0  0  0  0  0
   -5.8971    3.3530    4.7240 H   0  0  0  0  0  0  0  0  0  0  0  0
   -4.5055    1.5100    4.1860 H   0  0  0  0  0  0  0  0  0  0  0  0
   -4.4162    2.0611    0.4853 H   0  0  0  0  0  0  0  0  0  0  0  0
   -2.5147    0.3707    3.9651 H   0  0  0  0  0  0  0  0  0  0  0  0
   -0.6229   -0.3171    2.6057 H   0  0  0  0  0  0  0  0  0  0  0  0
   -4.6539    1.9518   -2.3417 H   0  0  0  0  0  0  0  0  0  0  0  0
   -4.5356   -2.2892   -1.8013 H   0  0  0  0  0  0  0  0  0  0  0  0
   -3.0129   -1.4378   -1.5906 H   0  0  0  0  0  0  0  0  0  0  0  0
   -4.3387   -1.1665   -0.4543 H   0  0  0  0  0  0  0  0  0  0  0  0
   -6.4677    0.0316   -1.2095 H   0  0  0  0  0  0  0  0  0  0  0  0
   -6.6201   -1.1206   -2.5472 H   0  0  0  0  0  0  0  0  0  0  0  0
   -6.6142    0.6240   -2.8635 H   0  0  0  0  0  0  0  0  0  0  0  0
   -3.2051   -0.4958   -4.0203 H   0  0  0  0  0  0  0  0  0  0  0  0
   -4.6562    0.3899   -4.4893 H   0  0  0  0  0  0  0  0  0  0  0  0
   -4.7258   -1.3618   -4.2331 H   0  0  0  0  0  0  0  0  0  0  0  0
    0.7508   -3.3901    0.8032 H   0  0  0  0  0  0  0  0  0  0  0  0
   -0.0289   -2.5326   -0.5348 H   0  0  0  0  0  0  0  0  0  0  0  0
    1.6304   -3.1180   -0.7195 H   0  0  0  0  0  0  0  0  0  0  0  0
    5.2208   -2.5740    2.5192 H   0  0  0  0  0  0  0  0  0  0  0  0
    0.2786    2.4163   -0.5967 H   0  0  0  0  0  0  0  0  0  0  0  0
    0.2487    4.8444   -0.5109 H   0  0  0  0  0  0  0  0  0  0  0  0
    1.7573    6.0719    1.0280 H   0  0  0  0  0  0  0  0  0  0  0  0
    3.2806    4.8133    2.5298 H   0  0  0  0  0  0  0  0  0  0  0  0
    3.2862    2.3505    2.5203 H   0  0  0  0  0  0  0  0  0  0  0  0
  1  2  1  0
  2  3  1  0
  2  4  1  0
  4  5  1  0
  5  6  2  0
  5  7  1  0
  7  8  1  0
  8  9  2  0
  8 10  1  0
 10 11  2  0
 11 12  1  0
 12 13  2  0
 13 14  1  0
 14 15  2  0
 14 16  2  0
 14 17  1  0
 17 18  1  0
 18 19  1  0
 18 20  1  0
 18 21  1  0
 12 22  1  0
 22 23  1  0
 23 24  2  0
 24 25  1  0
 24 26  1  0
 26 27  1  0
 27 28  2  0
 27 29  1  0
 26 30  2  0
 30 31  1  0
 31 32  1  0
 32 33  2  0
 33 34  1  0
 34 35  2  0
 35 36  1  0
 36 37  2  0
 13  9  1  0
 31 23  1  0
 37 32  1  0
  1 38  1  0
  1 39  1  0
  1 40  1  0
  2 41  1  0
  3 42  1  0
  3 43  1  0
  3 44  1  0
  4 45  1  0
  4 46  1  0
  7 47  1  0
  9 48  1  0
 10 49  1  0
 11 50  1  0
 17 51  1  0
 19 52  1  0
 19 53  1  0
 19 54  1  0
 20 55  1  0
 20 56  1  0
 20 57  1  0
 21 58  1  0
 21 59  1  0
 21 60  1  0
 25 61  1  0
 25 62  1  0
 25 63  1  0
 29 64  1  0
 33 65  1  0
 34 66  1  0
 35 67  1  0
 36 68  1  0
 37 69  1  0
M  END
>  <mol_id>  (20) 
V027-3772

>  <drugclip_rank>  (20) 
20

>  <conformer>  (20) 
19

>  <align_rmsd>  (20) 
0.657

$$$$
FCG2296052867
     RDKit          3D

 57 58  0  0  0  0  0  0  0  0999 V2000
   -4.0368   -0.2470    4.1254 C   0  0  0  0  0  0  0  0  0  0  0  0
   -2.5800   -0.3299    3.6631 C   0  0  0  0  0  0  0  0  0  0  0  0
   -1.9742   -1.6932    4.0052 C   0  0  0  0  0  0  0  0  0  0  0  0
   -2.4437   -0.0165    2.1832 C   0  0  0  0  0  0  0  0  0  0  0  0
   -3.0723   -0.8030    1.2023 C   0  0  0  0  0  0  0  0  0  0  0  0
   -2.9747   -0.5027   -0.1707 C   0  0  0  0  0  0  0  0  0  0  0  0
   -3.7001   -1.3561   -1.2015 C   0  0  0  0  0  0  0  0  0  0  0  0
   -5.2184   -1.2096   -1.0673 C   0  0  0  0  0  0  0  0  0  0  0  0
   -3.2864   -2.8292   -1.1206 C   0  0  0  0  0  0  0  0  0  0  0  0
   -2.2184    0.6160   -0.5494 C   0  0  0  0  0  0  0  0  0  0  0  0
   -2.1728    0.9487   -1.8809 O   0  0  0  0  0  0  0  0  0  0  0  0
   -1.5359    1.3804    0.4106 C   0  0  0  0  0  0  0  0  0  0  0  0
   -1.6804    1.0832    1.7715 C   0  0  0  0  0  0  0  0  0  0  0  0
   -0.7191    2.5409   -0.0228 C   0  0  0  0  0  0  0  0  0  0  0  0
   -1.1844    3.2445   -0.9217 O   0  0  0  0  0  0  0  0  0  0  0  0
    0.5251    2.7819    0.5609 N   0  0  0  0  0  0  0  0  0  0  0  0
    1.2073    4.0206    0.1954 C   0  0  0  0  0  0  0  0  0  0  0  0
    2.3122    4.3631    1.1835 C   0  0  0  0  0  0  0  0  0  0  0  0
    3.3624    3.2544    1.2792 C   0  0  0  0  0  0  0  0  0  0  0  0
    2.8203    1.8691    0.8817 C   0  0  0  0  0  0  0  0  0  0  0  0
    1.3275    1.7479    1.2273 C   0  0  0  0  0  0  0  0  0  0  0  0
    3.6194    0.7216    1.5236 C   0  0  0  0  0  0  0  0  0  0  0  0
    5.0931    0.7120    1.1136 C   0  0  0  0  0  0  0  0  0  0  0  0
    5.8115   -0.4900    1.6655 C   0  0  0  0  0  0  0  0  0  0  0  0
    5.3733   -1.3264    2.4358 O   0  0  0  0  0  0  0  0  0  0  0  0
    7.0782   -0.5679    1.2133 O   0  0  0  0  0  0  0  0  0  0  0  0
   -4.4670    0.7327    3.8886 H   0  0  0  0  0  0  0  0  0  0  0  0
   -4.1053   -0.3894    5.2092 H   0  0  0  0  0  0  0  0  0  0  0  0
   -4.6627   -1.0099    3.6503 H   0  0  0  0  0  0  0  0  0  0  0  0
   -2.0193    0.4233    4.2322 H   0  0  0  0  0  0  0  0  0  0  0  0
   -2.0051   -1.8679    5.0861 H   0  0  0  0  0  0  0  0  0  0  0  0
   -0.9270   -1.7465    3.6873 H   0  0  0  0  0  0  0  0  0  0  0  0
   -2.5127   -2.5148    3.5203 H   0  0  0  0  0  0  0  0  0  0  0  0
   -3.6694   -1.6580    1.5150 H   0  0  0  0  0  0  0  0  0  0  0  0
   -3.4344   -1.0190   -2.2104 H   0  0  0  0  0  0  0  0  0  0  0  0
   -5.5827   -1.5859   -0.1051 H   0  0  0  0  0  0  0  0  0  0  0  0
   -5.7306   -1.7679   -1.8583 H   0  0  0  0  0  0  0  0  0  0  0  0
   -5.5185   -0.1589   -1.1505 H   0  0  0  0  0  0  0  0  0  0  0  0
   -3.5895   -3.2930   -0.1759 H   0  0  0  0  0  0  0  0  0  0  0  0
   -2.1997   -2.9370   -1.2139 H   0  0  0  0  0  0  0  0  0  0  0  0
   -3.7502   -3.4020   -1.9314 H   0  0  0  0  0  0  0  0  0  0  0  0
   -1.8836    1.8861   -1.9435 H   0  0  0  0  0  0  0  0  0  0  0  0
   -1.2080    1.7221    2.5137 H   0  0  0  0  0  0  0  0  0  0  0  0
    1.6150    3.8944   -0.8151 H   0  0  0  0  0  0  0  0  0  0  0  0
    0.4742    4.8345    0.1530 H   0  0  0  0  0  0  0  0  0  0  0  0
    2.7932    5.3080    0.9081 H   0  0  0  0  0  0  0  0  0  0  0  0
    1.8676    4.5145    2.1758 H   0  0  0  0  0  0  0  0  0  0  0  0
    3.7609    3.2410    2.3011 H   0  0  0  0  0  0  0  0  0  0  0  0
    4.2070    3.5026    0.6242 H   0  0  0  0  0  0  0  0  0  0  0  0
    2.9147    1.7741   -0.2096 H   0  0  0  0  0  0  0  0  0  0  0  0
    0.9650    0.7556    0.9405 H   0  0  0  0  0  0  0  0  0  0  0  0
    1.1806    1.8681    2.3072 H   0  0  0  0  0  0  0  0  0  0  0  0
    3.1635   -0.2352    1.2363 H   0  0  0  0  0  0  0  0  0  0  0  0
    3.5425    0.7799    2.6172 H   0  0  0  0  0  0  0  0  0  0  0  0
    5.1706    0.6845    0.0210 H   0  0  0  0  0  0  0  0  0  0  0  0
    5.6015    1.6066    1.4874 H   0  0  0  0  0  0  0  0  0  0  0  0
    7.4326   -1.3801    1.6313 H   0  0  0  0  0  0  0  0  0  0  0  0
  1  2  1  0
  2  3  1  0
  2  4  1  0
  4  5  2  0
  5  6  1  0
  6  7  1  0
  7  8  1  0
  7  9  1  0
  6 10  2  0
 10 11  1  0
 10 12  1  0
 12 13  2  0
 12 14  1  0
 14 15  2  0
 14 16  1  0
 16 17  1  0
 17 18  1  0
 18 19  1  0
 19 20  1  0
 20 21  1  0
 20 22  1  0
 22 23  1  0
 23 24  1  0
 24 25  2  0
 24 26  1  0
 13  4  1  0
 21 16  1  0
  1 27  1  0
  1 28  1  0
  1 29  1  0
  2 30  1  0
  3 31  1  0
  3 32  1  0
  3 33  1  0
  5 34  1  0
  7 35  1  0
  8 36  1  0
  8 37  1  0
  8 38  1  0
  9 39  1  0
  9 40  1  0
  9 41  1  0
 11 42  1  0
 13 43  1  0
 17 44  1  0
 17 45  1  0
 18 46  1  0
 18 47  1  0
 19 48  1  0
 19 49  1  0
 20 50  1  0
 21 51  1  0
 21 52  1  0
 22 53  1  0
 22 54  1  0
 23 55  1  0
 23 56  1  0
 26 57  1  0
M  END
>  <mol_id>  (21) 
FCG2296052867

>  <drugclip_rank>  (21) 
21

>  <conformer>  (21) 
7

>  <align_rmsd>  (21) 
1.239

$$$$
V007-7764
     RDKit          3D

 66 68  0  0  0  0  0  0  0  0999 V2000
    1.1368    4.1664    1.3442 C   0  0  0  0  0  0  0  0  0  0  0  0
    1.2370    5.5577    1.2656 C   0  0  0  0  0  0  0  0  0  0  0  0
    2.4171    6.1465    0.8325 C   0  0  0  0  0  0  0  0  0  0  0  0
    3.4978    5.3438    0.4751 C   0  0  0  0  0  0  0  0  0  0  0  0
    3.4220    3.9375    0.5387 C   0  0  0  0  0  0  0  0  0  0  0  0
    4.6417    3.1711    0.0976 C   0  0  0  0  0  0  0  0  0  0  0  0
    2.2198    3.3369    0.9932 C   0  0  0  0  0  0  0  0  0  0  0  0
    2.0835    1.9120    1.1197 N   0  0  0  0  0  0  0  0  0  0  0  0
    3.1748    1.1503    1.3598 N   0  0  0  0  0  0  0  0  0  0  0  0
    2.7383   -0.1102    1.5007 C   0  0  0  0  0  0  0  0  0  0  0  0
    1.3287   -0.1831    1.2816 C   0  0  0  0  0  0  0  0  0  0  0  0
    0.4997   -1.4144    1.2113 C   0  0  0  0  0  0  0  0  0  0  0  0
    3.6862   -1.1892    1.8080 C   0  0  0  0  0  0  0  0  0  0  0  0
    4.9081   -1.1025    1.8279 O   0  0  0  0  0  0  0  0  0  0  0  0
    3.1189   -2.3807    2.1270 O   0  0  0  0  0  0  0  0  0  0  0  0
    0.9236    1.1348    1.0992 C   0  0  0  0  0  0  0  0  0  0  0  0
   -0.2633    1.6834    0.8161 O   0  0  0  0  0  0  0  0  0  0  0  0
   -1.4371    1.1730    1.3090 C   0  0  0  0  0  0  0  0  0  0  0  0
   -2.5217    0.9847    0.4488 C   0  0  0  0  0  0  0  0  0  0  0  0
   -2.3026    1.3571   -1.2675 S   0  0  0  0  0  0  0  0  0  0  0  0
   -1.2060    0.5568   -1.7650 O   0  0  0  0  0  0  0  0  0  0  0  0
   -2.3279    2.7991   -1.3859 O   0  0  0  0  0  0  0  0  0  0  0  0
   -3.7063    0.8303   -2.0286 N   0  0  0  0  0  0  0  0  0  0  0  0
   -3.7933   -0.5456   -2.5422 C   0  0  0  0  0  0  0  0  0  0  0  0
   -3.2543   -0.5979   -3.9687 C   0  0  0  0  0  0  0  0  0  0  0  0
   -5.2578   -0.9724   -2.5233 C   0  0  0  0  0  0  0  0  0  0  0  0
   -1.5926    0.9279    2.6746 C   0  0  0  0  0  0  0  0  0  0  0  0
   -2.8156    0.4643    3.1647 C   0  0  0  0  0  0  0  0  0  0  0  0
   -3.8990    0.2481    2.3032 C   0  0  0  0  0  0  0  0  0  0  0  0
   -3.7486    0.5192    0.9419 C   0  0  0  0  0  0  0  0  0  0  0  0
   -5.0969   -0.2129    2.8881 N   0  0  0  0  0  0  0  0  0  0  0  0
   -6.2451   -0.6309    2.2400 C   0  0  0  0  0  0  0  0  0  0  0  0
   -6.3909   -0.7243    1.0251 O   0  0  0  0  0  0  0  0  0  0  0  0
   -7.3940   -1.0027    3.1792 C   0  0  0  0  0  0  0  0  0  0  0  0
   -7.0225   -2.1650    4.0964 C   0  0  0  0  0  0  0  0  0  0  0  0
   -7.8713    0.2114    3.9705 C   0  0  0  0  0  0  0  0  0  0  0  0
    0.2042    3.7661    1.7307 H   0  0  0  0  0  0  0  0  0  0  0  0
    0.3906    6.1766    1.5500 H   0  0  0  0  0  0  0  0  0  0  0  0
    2.4999    7.2274    0.7730 H   0  0  0  0  0  0  0  0  0  0  0  0
    4.4097    5.8217    0.1143 H   0  0  0  0  0  0  0  0  0  0  0  0
    4.3714    2.3544   -0.5793 H   0  0  0  0  0  0  0  0  0  0  0  0
    5.1871    2.7898    0.9670 H   0  0  0  0  0  0  0  0  0  0  0  0
    5.3304    3.8118   -0.4661 H   0  0  0  0  0  0  0  0  0  0  0  0
    0.2222   -1.7459    2.2152 H   0  0  0  0  0  0  0  0  0  0  0  0
    1.0414   -2.2251    0.7148 H   0  0  0  0  0  0  0  0  0  0  0  0
   -0.4121   -1.2621    0.6279 H   0  0  0  0  0  0  0  0  0  0  0  0
    3.9070   -2.9358    2.3031 H   0  0  0  0  0  0  0  0  0  0  0  0
   -4.1588    1.5690   -2.5653 H   0  0  0  0  0  0  0  0  0  0  0  0
   -3.2274   -1.2297   -1.9012 H   0  0  0  0  0  0  0  0  0  0  0  0
   -2.1925   -0.3347   -4.0080 H   0  0  0  0  0  0  0  0  0  0  0  0
   -3.3621   -1.6040   -4.3880 H   0  0  0  0  0  0  0  0  0  0  0  0
   -3.7871    0.1028   -4.6214 H   0  0  0  0  0  0  0  0  0  0  0  0
   -5.6395   -1.0047   -1.4997 H   0  0  0  0  0  0  0  0  0  0  0  0
   -5.3806   -1.9716   -2.9553 H   0  0  0  0  0  0  0  0  0  0  0  0
   -5.8865   -0.2761   -3.0877 H   0  0  0  0  0  0  0  0  0  0  0  0
   -0.7693    1.1003    3.3658 H   0  0  0  0  0  0  0  0  0  0  0  0
   -2.9061    0.2715    4.2319 H   0  0  0  0  0  0  0  0  0  0  0  0
   -4.5835    0.4035    0.2595 H   0  0  0  0  0  0  0  0  0  0  0  0
   -5.0927   -0.2907    3.8973 H   0  0  0  0  0  0  0  0  0  0  0  0
   -8.2233   -1.3364    2.5422 H   0  0  0  0  0  0  0  0  0  0  0  0
   -6.6049   -2.9988    3.5196 H   0  0  0  0  0  0  0  0  0  0  0  0
   -6.2803   -1.8773    4.8468 H   0  0  0  0  0  0  0  0  0  0  0  0
   -7.9067   -2.5301    4.6308 H   0  0  0  0  0  0  0  0  0  0  0  0
   -8.1122    1.0430    3.2981 H   0  0  0  0  0  0  0  0  0  0  0  0
   -8.7711   -0.0301    4.5466 H   0  0  0  0  0  0  0  0  0  0  0  0
   -7.1092    0.5673    4.6731 H   0  0  0  0  0  0  0  0  0  0  0  0
  1  2  2  0
  2  3  1  0
  3  4  2  0
  4  5  1  0
  5  6  1  0
  5  7  2  0
  7  8  1  0
  8  9  1  0
  9 10  2  0
 10 11  1  0
 11 12  1  0
 10 13  1  0
 13 14  2  0
 13 15  1  0
  8 16  1  0
 16 17  1  0
 17 18  1  0
 18 19  2  0
 19 20  1  0
 20 21  2  0
 20 22  2  0
 20 23  1  0
 23 24  1  0
 24 25  1  0
 24 26  1  0
 18 27  1  0
 27 28  2  0
 28 29  1  0
 29 30  2  0
 29 31  1  0
 31 32  1  0
 32 33  2  0
 32 34  1  0
 34 35  1  0
 34 36  1  0
  7  1  1  0
 16 11  2  0
 30 19  1  0
  1 37  1  0
  2 38  1  0
  3 39  1  0
  4 40  1  0
  6 41  1  0
  6 42  1  0
  6 43  1  0
 12 44  1  0
 12 45  1  0
 12 46  1  0
 15 47  1  0
 23 48  1  0
 24 49  1  0
 25 50  1  0
 25 51  1  0
 25 52  1  0
 26 53  1  0
 26 54  1  0
 26 55  1  0
 27 56  1  0
 28 57  1  0
 30 58  1  0
 31 59  1  0
 34 60  1  0
 35 61  1  0
 35 62  1  0
 35 63  1  0
 36 64  1  0
 36 65  1  0
 36 66  1  0
M  END
>  <mol_id>  (22) 
V007-7764

>  <drugclip_rank>  (22) 
22

>  <conformer>  (22) 
30

>  <align_rmsd>  (22) 
0.545

$$$$
V028-1648
     RDKit          3D

 63 65  0  0  0  0  0  0  0  0999 V2000
   -7.5156   -1.4666    3.7008 C   0  0  0  0  0  0  0  0  0  0  0  0
   -7.6942   -0.0191    3.2346 C   0  0  0  0  0  0  0  0  0  0  0  0
   -9.0735    0.1762    2.6231 C   0  0  0  0  0  0  0  0  0  0  0  0
   -6.5902    0.3512    2.2361 C   0  0  0  0  0  0  0  0  0  0  0  0
   -6.8220    0.4956    1.0428 O   0  0  0  0  0  0  0  0  0  0  0  0
   -5.3466    0.4449    2.8423 N   0  0  0  0  0  0  0  0  0  0  0  0
   -4.1059    0.7120    2.2284 C   0  0  0  0  0  0  0  0  0  0  0  0
   -3.9486    0.9793    0.8654 C   0  0  0  0  0  0  0  0  0  0  0  0
   -2.9739    0.7068    3.0542 C   0  0  0  0  0  0  0  0  0  0  0  0
   -1.7029    0.9500    2.5281 C   0  0  0  0  0  0  0  0  0  0  0  0
   -1.5437    1.1791    1.1587 C   0  0  0  0  0  0  0  0  0  0  0  0
   -2.6695    1.2060    0.3338 C   0  0  0  0  0  0  0  0  0  0  0  0
   -2.4647    1.5149   -1.3976 S   0  0  0  0  0  0  0  0  0  0  0  0
   -1.3539    0.7244   -1.8860 O   0  0  0  0  0  0  0  0  0  0  0  0
   -2.5275    2.9509   -1.5752 O   0  0  0  0  0  0  0  0  0  0  0  0
   -3.8514    0.9010   -2.1093 N   0  0  0  0  0  0  0  0  0  0  0  0
   -3.9555   -0.5319   -2.4072 C   0  0  0  0  0  0  0  0  0  0  0  0
   -5.4073   -0.9610   -2.2145 C   0  0  0  0  0  0  0  0  0  0  0  0
   -3.5103   -0.7904   -3.8438 C   0  0  0  0  0  0  0  0  0  0  0  0
   -0.3108    1.4773    0.6361 O   0  0  0  0  0  0  0  0  0  0  0  0
    0.7708    0.7434    0.9201 C   0  0  0  0  0  0  0  0  0  0  0  0
    0.9492   -0.6132    1.1498 C   0  0  0  0  0  0  0  0  0  0  0  0
   -0.0503   -1.7039    1.0365 C   0  0  0  0  0  0  0  0  0  0  0  0
    2.3175   -0.7458    1.5306 C   0  0  0  0  0  0  0  0  0  0  0  0
    3.0084   -1.9737    1.9405 C   0  0  0  0  0  0  0  0  0  0  0  0
    2.4774   -3.0663    2.1208 O   0  0  0  0  0  0  0  0  0  0  0  0
    4.3443   -1.8413    2.1370 O   0  0  0  0  0  0  0  0  0  0  0  0
    2.9465    0.4392    1.4835 N   0  0  0  0  0  0  0  0  0  0  0  0
    2.0352    1.3231    0.9986 N   0  0  0  0  0  0  0  0  0  0  0  0
    2.4523    2.6584    0.6880 C   0  0  0  0  0  0  0  0  0  0  0  0
    3.7338    3.0847    1.0871 C   0  0  0  0  0  0  0  0  0  0  0  0
    4.1742    4.3844    0.8140 C   0  0  0  0  0  0  0  0  0  0  0  0
    3.3469    5.2671    0.1259 C   0  0  0  0  0  0  0  0  0  0  0  0
    2.0887    4.8470   -0.3011 C   0  0  0  0  0  0  0  0  0  0  0  0
    1.6399    3.5500   -0.0234 C   0  0  0  0  0  0  0  0  0  0  0  0
   -6.5615   -1.5969    4.2172 H   0  0  0  0  0  0  0  0  0  0  0  0
   -7.5290   -2.1625    2.8531 H   0  0  0  0  0  0  0  0  0  0  0  0
   -8.3114   -1.7509    4.4012 H   0  0  0  0  0  0  0  0  0  0  0  0
   -7.6098    0.6453    4.1056 H   0  0  0  0  0  0  0  0  0  0  0  0
   -9.2165   -0.4755    1.7532 H   0  0  0  0  0  0  0  0  0  0  0  0
   -9.2098    1.2125    2.2867 H   0  0  0  0  0  0  0  0  0  0  0  0
   -9.8598   -0.0442    3.3560 H   0  0  0  0  0  0  0  0  0  0  0  0
   -5.3202    0.2664    3.8386 H   0  0  0  0  0  0  0  0  0  0  0  0
   -4.8101    1.0251    0.2066 H   0  0  0  0  0  0  0  0  0  0  0  0
   -3.0633    0.5229    4.1225 H   0  0  0  0  0  0  0  0  0  0  0  0
   -0.8432    0.9682    3.1964 H   0  0  0  0  0  0  0  0  0  0  0  0
   -4.3538    1.5715   -2.6918 H   0  0  0  0  0  0  0  0  0  0  0  0
   -3.3282   -1.1051   -1.7131 H   0  0  0  0  0  0  0  0  0  0  0  0
   -6.0839   -0.4045   -2.8744 H   0  0  0  0  0  0  0  0  0  0  0  0
   -5.7340   -0.7839   -1.1823 H   0  0  0  0  0  0  0  0  0  0  0  0
   -5.5320   -2.0298   -2.4250 H   0  0  0  0  0  0  0  0  0  0  0  0
   -2.4649   -0.5014   -3.9941 H   0  0  0  0  0  0  0  0  0  0  0  0
   -3.6045   -1.8536   -4.0921 H   0  0  0  0  0  0  0  0  0  0  0  0
   -4.1096   -0.2176   -4.5604 H   0  0  0  0  0  0  0  0  0  0  0  0
   -0.4763   -1.9331    2.0192 H   0  0  0  0  0  0  0  0  0  0  0  0
   -0.8632   -1.4334    0.3612 H   0  0  0  0  0  0  0  0  0  0  0  0
    0.4021   -2.6164    0.6330 H   0  0  0  0  0  0  0  0  0  0  0  0
    4.6294   -2.7386    2.3963 H   0  0  0  0  0  0  0  0  0  0  0  0
    4.3966    2.4224    1.6396 H   0  0  0  0  0  0  0  0  0  0  0  0
    5.1674    4.6991    1.1286 H   0  0  0  0  0  0  0  0  0  0  0  0
    3.6920    6.2731   -0.1027 H   0  0  0  0  0  0  0  0  0  0  0  0
    1.4558    5.5225   -0.8683 H   0  0  0  0  0  0  0  0  0  0  0  0
    0.6689    3.2704   -0.4195 H   0  0  0  0  0  0  0  0  0  0  0  0
  1  2  1  0
  2  3  1  0
  2  4  1  0
  4  5  2  0
  4  6  1  0
  6  7  1  0
  7  8  2  0
  7  9  1  0
  9 10  2  0
 10 11  1  0
 11 12  2  0
 12 13  1  0
 13 14  2  0
 13 15  2  0
 13 16  1  0
 16 17  1  0
 17 18  1  0
 17 19  1  0
 11 20  1  0
 20 21  1  0
 21 22  2  0
 22 23  1  0
 22 24  1  0
 24 25  1  0
 25 26  2  0
 25 27  1  0
 24 28  2  0
 28 29  1  0
 29 30  1  0
 30 31  2  0
 31 32  1  0
 32 33  2  0
 33 34  1  0
 34 35  2  0
 12  8  1  0
 29 21  1  0
 35 30  1  0
  1 36  1  0
  1 37  1  0
  1 38  1  0
  2 39  1  0
  3 40  1  0
  3 41  1  0
  3 42  1  0
  6 43  1  0
  8 44  1  0
  9 45  1  0
 10 46  1  0
 16 47  1  0
 17 48  1  0
 18 49  1  0
 18 50  1  0
 18 51  1  0
 19 52  1  0
 19 53  1  0
 19 54  1  0
 23 55  1  0
 23 56  1  0
 23 57  1  0
 27 58  1  0
 31 59  1  0
 32 60  1  0
 33 61  1  0
 34 62  1  0
 35 63  1  0
M  END
>  <mol_id>  (23) 
V028-1648

>  <drugclip_rank>  (23) 
23

>  <conformer>  (23) 
4

>  <align_rmsd>  (23) 
0.311

$$$$
V027-3952
     RDKit          3D

 65 66  0  0  0  0  0  0  0  0999 V2000
    2.9063    3.3232    2.0607 C   0  0  0  0  0  0  0  0  0  0  0  0
    2.2251    2.6744    0.8552 C   0  0  0  0  0  0  0  0  0  0  0  0
    3.0758    2.8092   -0.4071 C   0  0  0  0  0  0  0  0  0  0  0  0
    1.8895    1.2748    1.1122 N   0  0  0  0  0  0  0  0  0  0  0  0
    2.8596    0.4179    1.4802 N   0  0  0  0  0  0  0  0  0  0  0  0
    2.2440   -0.7742    1.5770 C   0  0  0  0  0  0  0  0  0  0  0  0
    2.9671   -1.9996    1.9449 C   0  0  0  0  0  0  0  0  0  0  0  0
    2.4597   -3.1039    2.1035 O   0  0  0  0  0  0  0  0  0  0  0  0
    4.3047   -1.8560    2.1200 O   0  0  0  0  0  0  0  0  0  0  0  0
    0.8464   -0.6535    1.2754 C   0  0  0  0  0  0  0  0  0  0  0  0
   -0.1385   -1.7639    1.2092 C   0  0  0  0  0  0  0  0  0  0  0  0
    0.6454    0.6991    1.0371 C   0  0  0  0  0  0  0  0  0  0  0  0
   -0.4128    1.4501    0.7188 O   0  0  0  0  0  0  0  0  0  0  0  0
   -1.6767    1.1475    1.1532 C   0  0  0  0  0  0  0  0  0  0  0  0
   -2.7475    1.2325    0.2646 C   0  0  0  0  0  0  0  0  0  0  0  0
   -2.4368    1.6101   -1.4344 S   0  0  0  0  0  0  0  0  0  0  0  0
   -1.3486    0.7929   -1.9228 O   0  0  0  0  0  0  0  0  0  0  0  0
   -2.4440    3.0517   -1.5568 O   0  0  0  0  0  0  0  0  0  0  0  0
   -3.8319    1.0842   -2.2353 N   0  0  0  0  0  0  0  0  0  0  0  0
   -3.8828   -0.3238   -2.6508 C   0  0  0  0  0  0  0  0  0  0  0  0
   -5.3337   -0.6948   -2.9418 C   0  0  0  0  0  0  0  0  0  0  0  0
   -5.4597   -2.1468   -3.3704 C   0  0  0  0  0  0  0  0  0  0  0  0
   -1.9285    0.8587    2.4967 C   0  0  0  0  0  0  0  0  0  0  0  0
   -3.2356    0.6206    2.9379 C   0  0  0  0  0  0  0  0  0  0  0  0
   -4.3101    0.6960    2.0502 C   0  0  0  0  0  0  0  0  0  0  0  0
   -4.0592    1.0102    0.7093 C   0  0  0  0  0  0  0  0  0  0  0  0
   -5.6547    0.4836    2.4173 N   0  0  0  0  0  0  0  0  0  0  0  0
   -6.1454    0.1649    3.6712 C   0  0  0  0  0  0  0  0  0  0  0  0
   -5.4895   -0.0103    4.6922 O   0  0  0  0  0  0  0  0  0  0  0  0
   -7.6572    0.0063    3.6885 C   0  0  0  0  0  0  0  0  0  0  0  0
   -8.0853   -1.4625    3.5622 C   0  0  0  0  0  0  0  0  0  0  0  0
   -7.8277   -2.0181    2.1602 C   0  0  0  0  0  0  0  0  0  0  0  0
   -9.5688   -1.6029    3.9084 C   0  0  0  0  0  0  0  0  0  0  0  0
    3.8826    2.8709    2.2685 H   0  0  0  0  0  0  0  0  0  0  0  0
    2.2905    3.2150    2.9607 H   0  0  0  0  0  0  0  0  0  0  0  0
    3.0639    4.3928    1.8855 H   0  0  0  0  0  0  0  0  0  0  0  0
    1.2814    3.2052    0.6841 H   0  0  0  0  0  0  0  0  0  0  0  0
    3.2644    3.8629   -0.6361 H   0  0  0  0  0  0  0  0  0  0  0  0
    2.5678    2.3623   -1.2688 H   0  0  0  0  0  0  0  0  0  0  0  0
    4.0447    2.3096   -0.2968 H   0  0  0  0  0  0  0  0  0  0  0  0
    4.6024   -2.7523    2.3686 H   0  0  0  0  0  0  0  0  0  0  0  0
    0.2906   -2.6329    0.7000 H   0  0  0  0  0  0  0  0  0  0  0  0
   -0.4424   -2.0666    2.2154 H   0  0  0  0  0  0  0  0  0  0  0  0
   -1.0314   -1.4834    0.6445 H   0  0  0  0  0  0  0  0  0  0  0  0
   -4.1414    1.7864   -2.9096 H   0  0  0  0  0  0  0  0  0  0  0  0
   -3.2726   -0.4568   -3.5502 H   0  0  0  0  0  0  0  0  0  0  0  0
   -3.4928   -0.9696   -1.8571 H   0  0  0  0  0  0  0  0  0  0  0  0
   -5.7368   -0.0471   -3.7301 H   0  0  0  0  0  0  0  0  0  0  0  0
   -5.9484   -0.5247   -2.0492 H   0  0  0  0  0  0  0  0  0  0  0  0
   -5.0912   -2.8193   -2.5895 H   0  0  0  0  0  0  0  0  0  0  0  0
   -4.8883   -2.3366   -4.2846 H   0  0  0  0  0  0  0  0  0  0  0  0
   -6.5071   -2.3957   -3.5661 H   0  0  0  0  0  0  0  0  0  0  0  0
   -1.1143    0.8242    3.2175 H   0  0  0  0  0  0  0  0  0  0  0  0
   -3.3778    0.3934    3.9907 H   0  0  0  0  0  0  0  0  0  0  0  0
   -4.8858    1.0948    0.0102 H   0  0  0  0  0  0  0  0  0  0  0  0
   -6.3395    0.5899    1.6786 H   0  0  0  0  0  0  0  0  0  0  0  0
   -8.1149    0.6178    2.9020 H   0  0  0  0  0  0  0  0  0  0  0  0
   -8.0063    0.4246    4.6410 H   0  0  0  0  0  0  0  0  0  0  0  0
   -7.5121   -2.0664    4.2771 H   0  0  0  0  0  0  0  0  0  0  0  0
   -6.7572   -2.0473    1.9353 H   0  0  0  0  0  0  0  0  0  0  0  0
   -8.2051   -3.0424    2.0715 H   0  0  0  0  0  0  0  0  0  0  0  0
   -8.3207   -1.4097    1.3941 H   0  0  0  0  0  0  0  0  0  0  0  0
   -9.7645   -1.2611    4.9309 H   0  0  0  0  0  0  0  0  0  0  0  0
  -10.1945   -1.0125    3.2282 H   0  0  0  0  0  0  0  0  0  0  0  0
   -9.8865   -2.6495    3.8405 H   0  0  0  0  0  0  0  0  0  0  0  0
  1  2  1  0
  2  3  1  0
  2  4  1  0
  4  5  1  0
  5  6  2  0
  6  7  1  0
  7  8  2  0
  7  9  1  0
  6 10  1  0
 10 11  1  0
 10 12  2  0
 12 13  1  0
 13 14  1  0
 14 15  2  0
 15 16  1  0
 16 17  2  0
 16 18  2  0
 16 19  1  0
 19 20  1  0
 20 21  1  0
 21 22  1  0
 14 23  1  0
 23 24  2  0
 24 25  1  0
 25 26  2  0
 25 27  1  0
 27 28  1  0
 28 29  2  0
 28 30  1  0
 30 31  1  0
 31 32  1  0
 31 33  1  0
 12  4  1  0
 26 15  1  0
  1 34  1  0
  1 35  1  0
  1 36  1  0
  2 37  1  0
  3 38  1  0
  3 39  1  0
  3 40  1  0
  9 41  1  0
 11 42  1  0
 11 43  1  0
 11 44  1  0
 19 45  1  0
 20 46  1  0
 20 47  1  0
 21 48  1  0
 21 49  1  0
 22 50  1  0
 22 51  1  0
 22 52  1  0
 23 53  1  0
 24 54  1  0
 26 55  1  0
 27 56  1  0
 30 57  1  0
 30 58  1  0
 31 59  1  0
 32 60  1  0
 32 61  1  0
 32 62  1  0
 33 63  1  0
 33 64  1  0
 33 65  1  0
M  END
>  <mol_id>  (24) 
V027-3952

>  <drugclip_rank>  (24) 
24

>  <conformer>  (24) 
33

>  <align_rmsd>  (24) 
0.256

$$$$
V005-3202
     RDKit          3D

 66 68  0  0  0  0  0  0  0  0999 V2000
    1.8185    2.9698   -0.7141 C   0  0  0  0  0  0  0  0  0  0  0  0
    2.2933    2.5780    0.7005 C   0  0  0  0  0  0  0  0  0  0  0  0
    3.8227    2.8205    0.7482 C   0  0  0  0  0  0  0  0  0  0  0  0
    1.6408    3.4924    1.7542 C   0  0  0  0  0  0  0  0  0  0  0  0
    1.9564    1.1644    0.9855 N   0  0  0  0  0  0  0  0  0  0  0  0
    2.9168    0.3195    1.4142 N   0  0  0  0  0  0  0  0  0  0  0  0
    2.3139   -0.8773    1.5152 C   0  0  0  0  0  0  0  0  0  0  0  0
    3.0363   -2.0895    1.9219 C   0  0  0  0  0  0  0  0  0  0  0  0
    2.5440   -3.2079    2.0272 O   0  0  0  0  0  0  0  0  0  0  0  0
    4.3521   -1.9215    2.2106 O   0  0  0  0  0  0  0  0  0  0  0  0
    0.9205   -0.7735    1.2021 C   0  0  0  0  0  0  0  0  0  0  0  0
   -0.0549   -1.8939    1.1891 C   0  0  0  0  0  0  0  0  0  0  0  0
    0.7116    0.5713    0.9359 C   0  0  0  0  0  0  0  0  0  0  0  0
   -0.3560    1.2977    0.6006 O   0  0  0  0  0  0  0  0  0  0  0  0
   -1.6100    1.0639    1.0954 C   0  0  0  0  0  0  0  0  0  0  0  0
   -2.7135    1.2464    0.2617 C   0  0  0  0  0  0  0  0  0  0  0  0
   -2.4796    1.6134   -1.4569 S   0  0  0  0  0  0  0  0  0  0  0  0
   -2.5930    3.0481   -1.6019 O   0  0  0  0  0  0  0  0  0  0  0  0
   -1.3335    0.8773   -1.9444 O   0  0  0  0  0  0  0  0  0  0  0  0
   -3.8199    0.9518   -2.2238 N   0  0  0  0  0  0  0  0  0  0  0  0
   -4.0608   -0.4917   -2.1826 C   0  0  0  0  0  0  0  0  0  0  0  0
   -4.7996   -0.9446   -3.4516 C   0  0  0  0  0  0  0  0  0  0  0  0
   -6.2280   -0.3960   -3.5065 C   0  0  0  0  0  0  0  0  0  0  0  0
   -4.8269   -2.4727   -3.5215 C   0  0  0  0  0  0  0  0  0  0  0  0
   -1.8184    0.7911    2.4509 C   0  0  0  0  0  0  0  0  0  0  0  0
   -3.1185    0.6670    2.9534 C   0  0  0  0  0  0  0  0  0  0  0  0
   -4.2274    0.8497    2.1196 C   0  0  0  0  0  0  0  0  0  0  0  0
   -4.0160    1.1558    0.7750 C   0  0  0  0  0  0  0  0  0  0  0  0
   -5.5059    0.7264    2.6981 N   0  0  0  0  0  0  0  0  0  0  0  0
   -6.7256    0.8367    2.0642 C   0  0  0  0  0  0  0  0  0  0  0  0
   -6.9310    1.0067    0.8712 O   0  0  0  0  0  0  0  0  0  0  0  0
   -7.8750    0.6954    3.0074 C   0  0  0  0  0  0  0  0  0  0  0  0
   -8.5789   -0.6395    3.1237 C   0  0  0  0  0  0  0  0  0  0  0  0
   -9.2872    0.5247    2.4931 C   0  0  0  0  0  0  0  0  0  0  0  0
    2.2183    3.9440   -1.0117 H   0  0  0  0  0  0  0  0  0  0  0  0
    2.1475    2.2346   -1.4569 H   0  0  0  0  0  0  0  0  0  0  0  0
    0.7276    3.0418   -0.7837 H   0  0  0  0  0  0  0  0  0  0  0  0
    4.3534    2.1722    0.0420 H   0  0  0  0  0  0  0  0  0  0  0  0
    4.0682    3.8575    0.4949 H   0  0  0  0  0  0  0  0  0  0  0  0
    4.2329    2.6230    1.7465 H   0  0  0  0  0  0  0  0  0  0  0  0
    1.9521    3.2068    2.7662 H   0  0  0  0  0  0  0  0  0  0  0  0
    0.5472    3.4433    1.7239 H   0  0  0  0  0  0  0  0  0  0  0  0
    1.9186    4.5421    1.6013 H   0  0  0  0  0  0  0  0  0  0  0  0
    4.6309   -2.8150    2.4842 H   0  0  0  0  0  0  0  0  0  0  0  0
   -1.0384   -1.5944    0.8259 H   0  0  0  0  0  0  0  0  0  0  0  0
    0.2933   -2.7048    0.5414 H   0  0  0  0  0  0  0  0  0  0  0  0
   -0.1774   -2.2875    2.2020 H   0  0  0  0  0  0  0  0  0  0  0  0
   -4.6014    1.5959   -2.3397 H   0  0  0  0  0  0  0  0  0  0  0  0
   -3.1076   -1.0269   -2.1088 H   0  0  0  0  0  0  0  0  0  0  0  0
   -4.6533   -0.7406   -1.2966 H   0  0  0  0  0  0  0  0  0  0  0  0
   -4.2600   -0.5759   -4.3338 H   0  0  0  0  0  0  0  0  0  0  0  0
   -6.7940   -0.6658   -2.6067 H   0  0  0  0  0  0  0  0  0  0  0  0
   -6.2273    0.6955   -3.5881 H   0  0  0  0  0  0  0  0  0  0  0  0
   -6.7654   -0.7872   -4.3768 H   0  0  0  0  0  0  0  0  0  0  0  0
   -5.3173   -2.9060   -2.6433 H   0  0  0  0  0  0  0  0  0  0  0  0
   -5.3665   -2.8130   -4.4141 H   0  0  0  0  0  0  0  0  0  0  0  0
   -3.8098   -2.8729   -3.5749 H   0  0  0  0  0  0  0  0  0  0  0  0
   -0.9758    0.6885    3.1297 H   0  0  0  0  0  0  0  0  0  0  0  0
   -3.2446    0.4533    4.0139 H   0  0  0  0  0  0  0  0  0  0  0  0
   -4.8529    1.3467    0.1127 H   0  0  0  0  0  0  0  0  0  0  0  0
   -5.5349    0.5123    3.6863 H   0  0  0  0  0  0  0  0  0  0  0  0
   -7.7793    1.2859    3.9143 H   0  0  0  0  0  0  0  0  0  0  0  0
   -8.2666   -1.4473    2.4714 H   0  0  0  0  0  0  0  0  0  0  0  0
   -8.9033   -0.9623    4.1056 H   0  0  0  0  0  0  0  0  0  0  0  0
   -9.4489    0.5022    1.4200 H   0  0  0  0  0  0  0  0  0  0  0  0
  -10.0915    0.9974    3.0445 H   0  0  0  0  0  0  0  0  0  0  0  0
  1  2  1  0
  2  3  1  0
  2  4  1  0
  2  5  1  0
  5  6  1  0
  6  7  2  0
  7  8  1  0
  8  9  2  0
  8 10  1  0
  7 11  1  0
 11 12  1  0
 11 13  2  0
 13 14  1  0
 14 15  1  0
 15 16  2  0
 16 17  1  0
 17 18  2  0
 17 19  2  0
 17 20  1  0
 20 21  1  0
 21 22  1  0
 22 23  1  0
 22 24  1  0
 15 25  1  0
 25 26  2  0
 26 27  1  0
 27 28  2  0
 27 29  1  0
 29 30  1  0
 30 31  2  0
 30 32  1  0
 32 33  1  0
 33 34  1  0
 13  5  1  0
 28 16  1  0
 34 32  1  0
  1 35  1  0
  1 36  1  0
  1 37  1  0
  3 38  1  0
  3 39  1  0
  3 40  1  0
  4 41  1  0
  4 42  1  0
  4 43  1  0
 10 44  1  0
 12 45  1  0
 12 46  1  0
 12 47  1  0
 20 48  1  0
 21 49  1  0
 21 50  1  0
 22 51  1  0
 23 52  1  0
 23 53  1  0
 23 54  1  0
 24 55  1  0
 24 56  1  0
 24 57  1  0
 25 58  1  0
 26 59  1  0
 28 60  1  0
 29 61  1  0
 32 62  1  0
 33 63  1  0
 33 64  1  0
 34 65  1  0
 34 66  1  0
M  END
>  <mol_id>  (25) 
V005-3202

>  <drugclip_rank>  (25) 
25

>  <conformer>  (25) 
37

>  <align_rmsd>  (25) 
0.357

$$$$
STL534049
     RDKit          3D

 61 63  0  0  0  0  0  0  0  0999 V2000
    3.0667    0.5218   -1.5904 C   0  0  0  0  0  0  0  0  0  0  0  0
    3.4894    0.1892   -2.8787 C   0  0  0  0  0  0  0  0  0  0  0  0
    2.6772   -0.5884   -3.6997 C   0  0  0  0  0  0  0  0  0  0  0  0
    1.4457   -1.0400   -3.2315 C   0  0  0  0  0  0  0  0  0  0  0  0
    1.0222   -0.7101   -1.9421 C   0  0  0  0  0  0  0  0  0  0  0  0
    1.8215    0.0869   -1.1046 C   0  0  0  0  0  0  0  0  0  0  0  0
    1.3992    0.4589    0.3215 C   0  0  0  0  0  0  0  0  0  0  0  0
    1.8622   -0.5733    1.2626 N   0  0  0  0  0  0  0  0  0  0  0  0
    3.1093   -0.4194    1.8340 C   0  0  0  0  0  0  0  0  0  0  0  0
    3.7925    0.5926    1.7044 O   0  0  0  0  0  0  0  0  0  0  0  0
    3.5449   -1.4894    2.5735 N   0  0  0  0  0  0  0  0  0  0  0  0
    4.8795   -1.4480    3.1946 C   0  0  2  0  0  0  0  0  0  0  0  0
    5.8663   -1.8677    2.1089 C   0  0  0  0  0  0  0  0  0  0  0  0
    5.7202   -2.8047    1.3360 O   0  0  0  0  0  0  0  0  0  0  0  0
    6.9699   -1.0980    2.0536 O   0  0  0  0  0  0  0  0  0  0  0  0
    4.8973   -2.4122    4.3888 C   0  0  0  0  0  0  0  0  0  0  0  0
    6.1173   -2.3767    5.3326 C   0  0  0  0  0  0  0  0  0  0  0  0
    7.3350   -3.1112    4.7729 C   0  0  0  0  0  0  0  0  0  0  0  0
    6.4932   -0.9649    5.7778 C   0  0  0  0  0  0  0  0  0  0  0  0
    0.9178   -1.6520    1.5495 C   0  0  0  0  0  0  0  0  0  0  0  0
   -0.3706   -1.0906    2.1446 C   0  0  0  0  0  0  0  0  0  0  0  0
   -0.9334    0.0281    1.3055 C   0  0  0  0  0  0  0  0  0  0  0  0
   -0.0949    0.7754    0.4611 C   0  0  0  0  0  0  0  0  0  0  0  0
   -2.2924    0.3634    1.4173 C   0  0  0  0  0  0  0  0  0  0  0  0
   -2.8341    1.4227    0.6808 C   0  0  0  0  0  0  0  0  0  0  0  0
   -4.1526    1.8040    0.7241 O   0  0  0  0  0  0  0  0  0  0  0  0
   -5.0125    1.1099    1.6152 C   0  0  0  0  0  0  0  0  0  0  0  0
   -2.0027    2.1698   -0.1740 C   0  0  0  0  0  0  0  0  0  0  0  0
   -0.6444    1.8477   -0.2689 C   0  0  0  0  0  0  0  0  0  0  0  0
   -2.6072    3.1925   -0.8631 O   0  0  0  0  0  0  0  0  0  0  0  0
   -1.8140    3.9243   -1.7860 C   0  0  0  0  0  0  0  0  0  0  0  0
    3.7208    1.1204   -0.9577 H   0  0  0  0  0  0  0  0  0  0  0  0
    4.4551    0.5354   -3.2377 H   0  0  0  0  0  0  0  0  0  0  0  0
    3.0063   -0.8470   -4.7025 H   0  0  0  0  0  0  0  0  0  0  0  0
    0.8130   -1.6508   -3.8700 H   0  0  0  0  0  0  0  0  0  0  0  0
    0.0572   -1.0784   -1.6008 H   0  0  0  0  0  0  0  0  0  0  0  0
    1.9041    1.4006    0.5782 H   0  0  0  0  0  0  0  0  0  0  0  0
    3.3487   -2.3703    2.1162 H   0  0  0  0  0  0  0  0  0  0  0  0
    5.0810   -0.4184    3.5056 H   0  0  0  0  0  0  0  0  0  0  0  0
    7.4646   -1.4401    1.2803 H   0  0  0  0  0  0  0  0  0  0  0  0
    4.0133   -2.1902    5.0040 H   0  0  0  0  0  0  0  0  0  0  0  0
    4.7518   -3.4421    4.0354 H   0  0  0  0  0  0  0  0  0  0  0  0
    5.8166   -2.9282    6.2344 H   0  0  0  0  0  0  0  0  0  0  0  0
    7.8117   -2.5640    3.9574 H   0  0  0  0  0  0  0  0  0  0  0  0
    7.0608   -4.1063    4.4081 H   0  0  0  0  0  0  0  0  0  0  0  0
    8.0900   -3.2436    5.5560 H   0  0  0  0  0  0  0  0  0  0  0  0
    7.2478   -1.0013    6.5712 H   0  0  0  0  0  0  0  0  0  0  0  0
    6.9107   -0.3761    4.9554 H   0  0  0  0  0  0  0  0  0  0  0  0
    5.6202   -0.4355    6.1729 H   0  0  0  0  0  0  0  0  0  0  0  0
    0.7167   -2.1807    0.6109 H   0  0  0  0  0  0  0  0  0  0  0  0
    1.3287   -2.3851    2.2481 H   0  0  0  0  0  0  0  0  0  0  0  0
   -0.1737   -0.6962    3.1493 H   0  0  0  0  0  0  0  0  0  0  0  0
   -1.1025   -1.9015    2.2366 H   0  0  0  0  0  0  0  0  0  0  0  0
   -2.9102   -0.2208    2.0918 H   0  0  0  0  0  0  0  0  0  0  0  0
   -4.6815    1.2219    2.6528 H   0  0  0  0  0  0  0  0  0  0  0  0
   -6.0081    1.5562    1.5347 H   0  0  0  0  0  0  0  0  0  0  0  0
   -5.0991    0.0543    1.3382 H   0  0  0  0  0  0  0  0  0  0  0  0
    0.0192    2.4177   -0.9131 H   0  0  0  0  0  0  0  0  0  0  0  0
   -2.4588    4.6673   -2.2652 H   0  0  0  0  0  0  0  0  0  0  0  0
   -1.4174    3.2732   -2.5717 H   0  0  0  0  0  0  0  0  0  0  0  0
   -1.0107    4.4637   -1.2742 H   0  0  0  0  0  0  0  0  0  0  0  0
  1  2  2  0
  2  3  1  0
  3  4  2  0
  4  5  1  0
  5  6  2  0
  6  7  1  0
  7  8  1  0
  8  9  1  0
  9 10  2  0
  9 11  1  0
 11 12  1  0
 12 13  1  0
 13 14  2  0
 13 15  1  0
 12 16  1  0
 16 17  1  0
 17 18  1  0
 17 19  1  0
  8 20  1  0
 20 21  1  0
 21 22  1  0
 22 23  2  0
 22 24  1  0
 24 25  2  0
 25 26  1  0
 26 27  1  0
 25 28  1  0
 28 29  2  0
 28 30  1  0
 30 31  1  0
  6  1  1  0
 23  7  1  0
 29 23  1  0
  1 32  1  0
  2 33  1  0
  3 34  1  0
  4 35  1  0
  5 36  1  0
  7 37  1  0
 11 38  1  0
 12 39  1  1
 15 40  1  0
 16 41  1  0
 16 42  1  0
 17 43  1  0
 18 44  1  0
 18 45  1  0
 18 46  1  0
 19 47  1  0
 19 48  1  0
 19 49  1  0
 20 50  1  0
 20 51  1  0
 21 52  1  0
 21 53  1  0
 24 54  1  0
 27 55  1  0
 27 56  1  0
 27 57  1  0
 29 58  1  0
 31 59  1  0
 31 60  1  0
 31 61  1  0
M  END
>  <mol_id>  (26) 
STL534049

>  <drugclip_rank>  (26) 
26

>  <conformer>  (26) 
17

>  <align_rmsd>  (26) 
1.262

$$$$
Y042-8054
     RDKit          3D

 58 60  0  0  0  0  0  0  0  0999 V2000
    0.8625   -0.7551   -1.9920 C   0  0  0  0  0  0  0  0  0  0  0  0
    1.2385   -1.1223   -3.2860 C   0  0  0  0  0  0  0  0  0  0  0  0
    2.4654   -0.7107   -3.8008 C   0  0  0  0  0  0  0  0  0  0  0  0
    3.3200    0.0654   -3.0220 C   0  0  0  0  0  0  0  0  0  0  0  0
    2.9448    0.4355   -1.7294 C   0  0  0  0  0  0  0  0  0  0  0  0
    1.7053    0.0403   -1.1966 C   0  0  0  0  0  0  0  0  0  0  0  0
    1.3386    0.4505    0.2341 C   0  0  0  0  0  0  0  0  0  0  0  0
    1.8308   -0.5606    1.1830 N   0  0  0  0  0  0  0  0  0  0  0  0
    3.0834   -0.3816    1.7350 C   0  0  0  0  0  0  0  0  0  0  0  0
    3.7592    0.6298    1.5671 O   0  0  0  0  0  0  0  0  0  0  0  0
    3.5312   -1.4265    2.5036 N   0  0  0  0  0  0  0  0  0  0  0  0
    4.8657   -1.3536    3.1160 C   0  0  2  0  0  0  0  0  0  0  0  0
    5.8857   -1.8046    2.0669 C   0  0  0  0  0  0  0  0  0  0  0  0
    5.6910   -2.6299    1.1853 O   0  0  0  0  0  0  0  0  0  0  0  0
    7.0949   -1.2274    2.2073 O   0  0  0  0  0  0  0  0  0  0  0  0
    4.9164   -2.1981    4.4078 C   0  0  0  0  0  0  0  0  0  0  0  0
    4.7582   -3.7034    4.1697 C   0  0  0  0  0  0  0  0  0  0  0  0
    6.1932   -1.9296    5.2091 C   0  0  0  0  0  0  0  0  0  0  0  0
    0.8958   -1.6339    1.5173 C   0  0  0  0  0  0  0  0  0  0  0  0
   -0.3699   -1.0599    2.1479 C   0  0  0  0  0  0  0  0  0  0  0  0
   -0.9574    0.0498    1.3130 C   0  0  0  0  0  0  0  0  0  0  0  0
   -0.1473    0.7787    0.4254 C   0  0  0  0  0  0  0  0  0  0  0  0
   -2.3090    0.3960    1.4716 C   0  0  0  0  0  0  0  0  0  0  0  0
   -2.8721    1.4473    0.7398 C   0  0  0  0  0  0  0  0  0  0  0  0
   -4.1853    1.8394    0.8291 O   0  0  0  0  0  0  0  0  0  0  0  0
   -5.0200    1.1506    1.7479 C   0  0  0  0  0  0  0  0  0  0  0  0
   -2.0697    2.1753   -0.1582 C   0  0  0  0  0  0  0  0  0  0  0  0
   -0.7179    1.8430   -0.3001 C   0  0  0  0  0  0  0  0  0  0  0  0
   -2.6940    3.1910   -0.8398 O   0  0  0  0  0  0  0  0  0  0  0  0
   -1.9342    3.8981   -1.8093 C   0  0  0  0  0  0  0  0  0  0  0  0
   -0.0997   -1.0932   -1.6137 H   0  0  0  0  0  0  0  0  0  0  0  0
    0.5727   -1.7320   -3.8914 H   0  0  0  0  0  0  0  0  0  0  0  0
    2.7585   -0.9997   -4.8065 H   0  0  0  0  0  0  0  0  0  0  0  0
    4.2829    0.3790   -3.4168 H   0  0  0  0  0  0  0  0  0  0  0  0
    3.6320    1.0312   -1.1296 H   0  0  0  0  0  0  0  0  0  0  0  0
    1.8572    1.3960    0.4461 H   0  0  0  0  0  0  0  0  0  0  0  0
    3.3520   -2.3145    2.0536 H   0  0  0  0  0  0  0  0  0  0  0  0
    5.0662   -0.3024    3.3573 H   0  0  0  0  0  0  0  0  0  0  0  0
    7.6154   -1.5756    1.4535 H   0  0  0  0  0  0  0  0  0  0  0  0
    4.0725   -1.8829    5.0373 H   0  0  0  0  0  0  0  0  0  0  0  0
    4.7243   -4.2393    5.1248 H   0  0  0  0  0  0  0  0  0  0  0  0
    5.5933   -4.1130    3.5924 H   0  0  0  0  0  0  0  0  0  0  0  0
    3.8293   -3.9286    3.6367 H   0  0  0  0  0  0  0  0  0  0  0  0
    6.1477   -2.4300    6.1827 H   0  0  0  0  0  0  0  0  0  0  0  0
    6.3210   -0.8579    5.3935 H   0  0  0  0  0  0  0  0  0  0  0  0
    7.0837   -2.2976    4.6896 H   0  0  0  0  0  0  0  0  0  0  0  0
    1.3294   -2.3590    2.2104 H   0  0  0  0  0  0  0  0  0  0  0  0
    0.6609   -2.1750    0.5936 H   0  0  0  0  0  0  0  0  0  0  0  0
   -1.1009   -1.8668    2.2753 H   0  0  0  0  0  0  0  0  0  0  0  0
   -0.1378   -0.6528    3.1399 H   0  0  0  0  0  0  0  0  0  0  0  0
   -2.9036   -0.1730    2.1791 H   0  0  0  0  0  0  0  0  0  0  0  0
   -6.0169    1.5987    1.6951 H   0  0  0  0  0  0  0  0  0  0  0  0
   -5.1168    0.0938    1.4780 H   0  0  0  0  0  0  0  0  0  0  0  0
   -4.6583    1.2664    2.7749 H   0  0  0  0  0  0  0  0  0  0  0  0
   -0.0760    2.3986   -0.9778 H   0  0  0  0  0  0  0  0  0  0  0  0
   -1.1082    4.4435   -1.3413 H   0  0  0  0  0  0  0  0  0  0  0  0
   -2.5937    4.6348   -2.2785 H   0  0  0  0  0  0  0  0  0  0  0  0
   -1.5727    3.2279   -2.5963 H   0  0  0  0  0  0  0  0  0  0  0  0
  1  2  2  0
  2  3  1  0
  3  4  2  0
  4  5  1  0
  5  6  2  0
  6  7  1  0
  7  8  1  0
  8  9  1  0
  9 10  2  0
  9 11  1  0
 11 12  1  0
 12 13  1  0
 13 14  2  0
 13 15  1  0
 12 16  1  0
 16 17  1  0
 16 18  1  0
  8 19  1  0
 19 20  1  0
 20 21  1  0
 21 22  2  0
 21 23  1  0
 23 24  2  0
 24 25  1  0
 25 26  1  0
 24 27  1  0
 27 28  2  0
 27 29  1  0
 29 30  1  0
  6  1  1  0
 22  7  1  0
 28 22  1  0
  1 31  1  0
  2 32  1  0
  3 33  1  0
  4 34  1  0
  5 35  1  0
  7 36  1  0
 11 37  1  0
 12 38  1  1
 15 39  1  0
 16 40  1  0
 17 41  1  0
 17 42  1  0
 17 43  1  0
 18 44  1  0
 18 45  1  0
 18 46  1  0
 19 47  1  0
 19 48  1  0
 20 49  1  0
 20 50  1  0
 23 51  1  0
 26 52  1  0
 26 53  1  0
 26 54  1  0
 28 55  1  0
 30 56  1  0
 30 57  1  0
 30 58  1  0
M  END
>  <mol_id>  (27) 
Y042-8054

>  <drugclip_rank>  (27) 
27

>  <conformer>  (27) 
5

>  <align_rmsd>  (27) 
1.285

$$$$
V027-6137
     RDKit          3D

 71 72  0  0  0  0  0  0  0  0999 V2000
    1.9147    2.9917   -0.7230 C   0  0  0  0  0  0  0  0  0  0  0  0
    2.3296    2.6261    0.7161 C   0  0  0  0  0  0  0  0  0  0  0  0
    3.8562    2.8671    0.8224 C   0  0  0  0  0  0  0  0  0  0  0  0
    1.6406    3.5683    1.7209 C   0  0  0  0  0  0  0  0  0  0  0  0
    1.9750    1.2223    1.0138 N   0  0  0  0  0  0  0  0  0  0  0  0
    2.9255    0.3705    1.4495 N   0  0  0  0  0  0  0  0  0  0  0  0
    2.3103   -0.8176    1.5636 C   0  0  0  0  0  0  0  0  0  0  0  0
    3.0281   -2.0304    1.9829 C   0  0  0  0  0  0  0  0  0  0  0  0
    2.5242   -3.1357    2.1453 O   0  0  0  0  0  0  0  0  0  0  0  0
    4.3567   -1.8742    2.2064 O   0  0  0  0  0  0  0  0  0  0  0  0
    0.9218   -0.7047    1.2384 C   0  0  0  0  0  0  0  0  0  0  0  0
   -0.0737   -1.8077    1.2147 C   0  0  0  0  0  0  0  0  0  0  0  0
    0.7269    0.6393    0.9604 C   0  0  0  0  0  0  0  0  0  0  0  0
   -0.3421    1.3667    0.6292 O   0  0  0  0  0  0  0  0  0  0  0  0
   -1.5866    1.1079    1.1422 C   0  0  0  0  0  0  0  0  0  0  0  0
   -2.7021    1.1702    0.3090 C   0  0  0  0  0  0  0  0  0  0  0  0
   -2.4905    1.4766   -1.4207 S   0  0  0  0  0  0  0  0  0  0  0  0
   -1.3602    0.7288   -1.9189 O   0  0  0  0  0  0  0  0  0  0  0  0
   -2.6006    2.9097   -1.5933 O   0  0  0  0  0  0  0  0  0  0  0  0
   -3.8835    0.8509   -2.1377 N   0  0  0  0  0  0  0  0  0  0  0  0
   -4.0092   -0.5407   -2.6393 C   0  0  0  0  0  0  0  0  0  0  0  0
   -3.5482   -1.5824   -1.6169 C   0  0  0  0  0  0  0  0  0  0  0  0
   -5.5108   -0.7591   -2.9082 C   0  0  0  0  0  0  0  0  0  0  0  0
   -3.2512   -0.6914   -3.9633 C   0  0  0  0  0  0  0  0  0  0  0  0
   -1.7705    0.8996    2.5111 C   0  0  0  0  0  0  0  0  0  0  0  0
   -3.0552    0.7174    3.0349 C   0  0  0  0  0  0  0  0  0  0  0  0
   -4.1752    0.7705    2.2049 C   0  0  0  0  0  0  0  0  0  0  0  0
   -3.9917    1.0069    0.8374 C   0  0  0  0  0  0  0  0  0  0  0  0
   -5.5017    0.6128    2.6577 N   0  0  0  0  0  0  0  0  0  0  0  0
   -5.9292    0.3686    3.9553 C   0  0  0  0  0  0  0  0  0  0  0  0
   -5.2160    0.2462    4.9428 O   0  0  0  0  0  0  0  0  0  0  0  0
   -7.4508    0.2922    4.0298 C   0  0  0  0  0  0  0  0  0  0  0  0
   -7.9862   -0.1453    5.4022 C   0  0  0  0  0  0  0  0  0  0  0  0
   -7.7558   -1.6399    5.6379 C   0  0  0  0  0  0  0  0  0  0  0  0
   -9.4800    0.1682    5.5069 C   0  0  0  0  0  0  0  0  0  0  0  0
    2.3670    2.3035   -1.4472 H   0  0  0  0  0  0  0  0  0  0  0  0
    2.2346    4.0081   -0.9825 H   0  0  0  0  0  0  0  0  0  0  0  0
    0.8305    2.9540   -0.8698 H   0  0  0  0  0  0  0  0  0  0  0  0
    4.4103    2.2276    0.1256 H   0  0  0  0  0  0  0  0  0  0  0  0
    4.1097    3.9074    0.5839 H   0  0  0  0  0  0  0  0  0  0  0  0
    4.2281    2.6639    1.8329 H   0  0  0  0  0  0  0  0  0  0  0  0
    1.9493    4.6077    1.5623 H   0  0  0  0  0  0  0  0  0  0  0  0
    0.5496    3.5417    1.6324 H   0  0  0  0  0  0  0  0  0  0  0  0
    1.8922    3.2970    2.7531 H   0  0  0  0  0  0  0  0  0  0  0  0
    4.6494   -2.7671    2.4696 H   0  0  0  0  0  0  0  0  0  0  0  0
    0.3592   -2.7201    0.7923 H   0  0  0  0  0  0  0  0  0  0  0  0
   -0.4220   -2.0269    2.2295 H   0  0  0  0  0  0  0  0  0  0  0  0
   -0.9401   -1.5583    0.5964 H   0  0  0  0  0  0  0  0  0  0  0  0
   -4.3282    1.5748   -2.7062 H   0  0  0  0  0  0  0  0  0  0  0  0
   -2.4829   -1.5009   -1.3900 H   0  0  0  0  0  0  0  0  0  0  0  0
   -4.0970   -1.4893   -0.6737 H   0  0  0  0  0  0  0  0  0  0  0  0
   -3.7162   -2.5980   -1.9917 H   0  0  0  0  0  0  0  0  0  0  0  0
   -6.0984   -0.6355   -1.9899 H   0  0  0  0  0  0  0  0  0  0  0  0
   -5.7066   -1.7636   -3.3015 H   0  0  0  0  0  0  0  0  0  0  0  0
   -5.8918   -0.0342   -3.6379 H   0  0  0  0  0  0  0  0  0  0  0  0
   -3.4669   -1.6589   -4.4311 H   0  0  0  0  0  0  0  0  0  0  0  0
   -3.5332    0.0945   -4.6743 H   0  0  0  0  0  0  0  0  0  0  0  0
   -2.1668   -0.6348   -3.8278 H   0  0  0  0  0  0  0  0  0  0  0  0
   -0.9203    0.8913    3.1888 H   0  0  0  0  0  0  0  0  0  0  0  0
   -3.1416    0.5546    4.1047 H   0  0  0  0  0  0  0  0  0  0  0  0
   -4.8529    1.0747    0.1794 H   0  0  0  0  0  0  0  0  0  0  0  0
   -6.2257    0.6898    1.9551 H   0  0  0  0  0  0  0  0  0  0  0  0
   -7.8120   -0.3892    3.2495 H   0  0  0  0  0  0  0  0  0  0  0  0
   -7.8243    1.2967    3.7942 H   0  0  0  0  0  0  0  0  0  0  0  0
   -7.4693    0.4108    6.1942 H   0  0  0  0  0  0  0  0  0  0  0  0
   -8.1503   -1.9425    6.6140 H   0  0  0  0  0  0  0  0  0  0  0  0
   -6.6896   -1.8869    5.6232 H   0  0  0  0  0  0  0  0  0  0  0  0
   -8.2537   -2.2443    4.8713 H   0  0  0  0  0  0  0  0  0  0  0  0
  -10.0522   -0.3581    4.7347 H   0  0  0  0  0  0  0  0  0  0  0  0
   -9.6617    1.2419    5.3919 H   0  0  0  0  0  0  0  0  0  0  0  0
   -9.8735   -0.1310    6.4845 H   0  0  0  0  0  0  0  0  0  0  0  0
  1  2  1  0
  2  3  1  0
  2  4  1  0
  2  5  1  0
  5  6  1  0
  6  7  2  0
  7  8  1  0
  8  9  2  0
  8 10  1  0
  7 11  1  0
 11 12  1  0
 11 13  2  0
 13 14  1  0
 14 15  1  0
 15 16  2  0
 16 17  1  0
 17 18  2  0
 17 19  2  0
 17 20  1  0
 20 21  1  0
 21 22  1  0
 21 23  1  0
 21 24  1  0
 15 25  1  0
 25 26  2  0
 26 27  1  0
 27 28  2  0
 27 29  1  0
 29 30  1  0
 30 31  2  0
 30 32  1  0
 32 33  1  0
 33 34  1  0
 33 35  1  0
 13  5  1  0
 28 16  1  0
  1 36  1  0
  1 37  1  0
  1 38  1  0
  3 39  1  0
  3 40  1  0
  3 41  1  0
  4 42  1  0
  4 43  1  0
  4 44  1  0
 10 45  1  0
 12 46  1  0
 12 47  1  0
 12 48  1  0
 20 49  1  0
 22 50  1  0
 22 51  1  0
 22 52  1  0
 23 53  1  0
 23 54  1  0
 23 55  1  0
 24 56  1  0
 24 57  1  0
 24 58  1  0
 25 59  1  0
 26 60  1  0
 28 61  1  0
 29 62  1  0
 32 63  1  0
 32 64  1  0
 33 65  1  0
 34 66  1  0
 34 67  1  0
 34 68  1  0
 35 69  1  0
 35 70  1  0
 35 71  1  0
M  END
>  <mol_id>  (28) 
V027-6137

>  <drugclip_rank>  (28) 
28

>  <conformer>  (28) 
16

>  <align_rmsd>  (28) 
0.344

$$$$
V008-1848
     RDKit          3D

 71 72  0  0  0  0  0  0  0  0999 V2000
    3.7471    2.9055    0.9038 C   0  0  0  0  0  0  0  0  0  0  0  0
    2.2304    2.6183    1.0188 C   0  0  0  0  0  0  0  0  0  0  0  0
    1.5537    3.3475   -0.1613 C   0  0  0  0  0  0  0  0  0  0  0  0
    1.7146    3.2093    2.3435 C   0  0  0  0  0  0  0  0  0  0  0  0
    1.9712    1.1633    1.0202 N   0  0  0  0  0  0  0  0  0  0  0  0
    2.9232    0.3309    1.5002 N   0  0  0  0  0  0  0  0  0  0  0  0
    2.4089   -0.9066    1.3736 C   0  0  0  0  0  0  0  0  0  0  0  0
    3.1618   -2.1119    1.7491 C   0  0  0  0  0  0  0  0  0  0  0  0
    2.7702   -3.2649    1.6167 O   0  0  0  0  0  0  0  0  0  0  0  0
    4.3828   -1.8856    2.2996 O   0  0  0  0  0  0  0  0  0  0  0  0
    1.0716   -0.8513    0.8705 C   0  0  0  0  0  0  0  0  0  0  0  0
    0.1788   -2.0039    0.5841 C   0  0  0  0  0  0  0  0  0  0  0  0
    0.8007    0.4982    0.7248 C   0  0  0  0  0  0  0  0  0  0  0  0
   -0.2882    1.1527    0.3286 O   0  0  0  0  0  0  0  0  0  0  0  0
   -1.4991    0.9991    0.9593 C   0  0  0  0  0  0  0  0  0  0  0  0
   -2.6709    1.2546    0.2440 C   0  0  0  0  0  0  0  0  0  0  0  0
   -2.5748    1.6394   -1.4838 S   0  0  0  0  0  0  0  0  0  0  0  0
   -2.5593    3.0821   -1.5902 O   0  0  0  0  0  0  0  0  0  0  0  0
   -1.5696    0.8095   -2.1120 O   0  0  0  0  0  0  0  0  0  0  0  0
   -4.0597    1.1436   -2.1104 N   0  0  0  0  0  0  0  0  0  0  0  0
   -4.1908   -0.2526   -2.5338 C   0  0  0  0  0  0  0  0  0  0  0  0
   -5.6508   -0.5808   -2.8455 C   0  0  0  0  0  0  0  0  0  0  0  0
   -6.5525   -0.5065   -1.6249 C   0  0  0  0  0  0  0  0  0  0  0  0
   -1.5875    0.7179    2.3274 C   0  0  0  0  0  0  0  0  0  0  0  0
   -2.8347    0.6815    2.9618 C   0  0  0  0  0  0  0  0  0  0  0  0
   -4.0109    0.9471    2.2489 C   0  0  0  0  0  0  0  0  0  0  0  0
   -3.9229    1.2307    0.8836 C   0  0  0  0  0  0  0  0  0  0  0  0
   -5.2130    0.9454    2.9840 N   0  0  0  0  0  0  0  0  0  0  0  0
   -6.4941    1.1945    2.5161 C   0  0  0  0  0  0  0  0  0  0  0  0
   -6.8093    1.3465    1.3399 O   0  0  0  0  0  0  0  0  0  0  0  0
   -7.5268    1.2414    3.6525 C   0  0  0  0  0  0  0  0  0  0  0  0
   -7.8594   -0.2032    4.0679 C   0  0  0  0  0  0  0  0  0  0  0  0
   -8.6176   -0.3028    5.3845 C   0  0  0  0  0  0  0  0  0  0  0  0
   -8.7902    2.0320    3.2530 C   0  0  0  0  0  0  0  0  0  0  0  0
   -8.5000    3.4902    2.9223 C   0  0  0  0  0  0  0  0  0  0  0  0
    3.9476    3.9811    0.8510 H   0  0  0  0  0  0  0  0  0  0  0  0
    4.1592    2.4553   -0.0085 H   0  0  0  0  0  0  0  0  0  0  0  0
    4.3141    2.5084    1.7547 H   0  0  0  0  0  0  0  0  0  0  0  0
    0.4693    3.4137   -0.0452 H   0  0  0  0  0  0  0  0  0  0  0  0
    1.7716    2.8608   -1.1212 H   0  0  0  0  0  0  0  0  0  0  0  0
    1.9051    4.3837   -0.2276 H   0  0  0  0  0  0  0  0  0  0  0  0
    2.2065    2.7403    3.2055 H   0  0  0  0  0  0  0  0  0  0  0  0
    1.8952    4.2917    2.4030 H   0  0  0  0  0  0  0  0  0  0  0  0
    0.6365    3.0515    2.4639 H   0  0  0  0  0  0  0  0  0  0  0  0
    4.7326   -2.7847    2.4583 H   0  0  0  0  0  0  0  0  0  0  0  0
   -0.7542   -1.6957    0.1009 H   0  0  0  0  0  0  0  0  0  0  0  0
    0.6846   -2.7097   -0.0901 H   0  0  0  0  0  0  0  0  0  0  0  0
   -0.0748   -2.5318    1.5108 H   0  0  0  0  0  0  0  0  0  0  0  0
   -4.4873    1.8669   -2.6904 H   0  0  0  0  0  0  0  0  0  0  0  0
   -3.8153   -0.9310   -1.7640 H   0  0  0  0  0  0  0  0  0  0  0  0
   -3.5972   -0.4040   -3.4433 H   0  0  0  0  0  0  0  0  0  0  0  0
   -6.0322    0.0908   -3.6247 H   0  0  0  0  0  0  0  0  0  0  0  0
   -5.6979   -1.5965   -3.2563 H   0  0  0  0  0  0  0  0  0  0  0  0
   -7.5517   -0.8849   -1.8674 H   0  0  0  0  0  0  0  0  0  0  0  0
   -6.1535   -1.0996   -0.7969 H   0  0  0  0  0  0  0  0  0  0  0  0
   -6.6640    0.5343   -1.3020 H   0  0  0  0  0  0  0  0  0  0  0  0
   -0.6941    0.5417    2.9175 H   0  0  0  0  0  0  0  0  0  0  0  0
   -2.8639    0.4665    4.0270 H   0  0  0  0  0  0  0  0  0  0  0  0
   -4.8063    1.4633    0.2998 H   0  0  0  0  0  0  0  0  0  0  0  0
   -5.1252    0.7727    3.9776 H   0  0  0  0  0  0  0  0  0  0  0  0
   -7.0621    1.7584    4.5018 H   0  0  0  0  0  0  0  0  0  0  0  0
   -8.4398   -0.6928    3.2749 H   0  0  0  0  0  0  0  0  0  0  0  0
   -6.9336   -0.7856    4.1708 H   0  0  0  0  0  0  0  0  0  0  0  0
   -8.7334   -1.3547    5.6663 H   0  0  0  0  0  0  0  0  0  0  0  0
   -8.0778    0.2052    6.1899 H   0  0  0  0  0  0  0  0  0  0  0  0
   -9.6186    0.1380    5.3062 H   0  0  0  0  0  0  0  0  0  0  0  0
   -9.2870    1.5526    2.4017 H   0  0  0  0  0  0  0  0  0  0  0  0
   -9.5096    2.0227    4.0790 H   0  0  0  0  0  0  0  0  0  0  0  0
   -9.4386    4.0429    2.7694 H   0  0  0  0  0  0  0  0  0  0  0  0
   -7.9046    3.5838    2.0086 H   0  0  0  0  0  0  0  0  0  0  0  0
   -7.9467    3.9797    3.7289 H   0  0  0  0  0  0  0  0  0  0  0  0
  1  2  1  0
  2  3  1  0
  2  4  1  0
  2  5  1  0
  5  6  1  0
  6  7  2  0
  7  8  1  0
  8  9  2  0
  8 10  1  0
  7 11  1  0
 11 12  1  0
 11 13  2  0
 13 14  1  0
 14 15  1  0
 15 16  2  0
 16 17  1  0
 17 18  2  0
 17 19  2  0
 17 20  1  0
 20 21  1  0
 21 22  1  0
 22 23  1  0
 15 24  1  0
 24 25  2  0
 25 26  1  0
 26 27  2  0
 26 28  1  0
 28 29  1  0
 29 30  2  0
 29 31  1  0
 31 32  1  0
 32 33  1  0
 31 34  1  0
 34 35  1  0
 13  5  1  0
 27 16  1  0
  1 36  1  0
  1 37  1  0
  1 38  1  0
  3 39  1  0
  3 40  1  0
  3 41  1  0
  4 42  1  0
  4 43  1  0
  4 44  1  0
 10 45  1  0
 12 46  1  0
 12 47  1  0
 12 48  1  0
 20 49  1  0
 21 50  1  0
 21 51  1  0
 22 52  1  0
 22 53  1  0
 23 54  1  0
 23 55  1  0
 23 56  1  0
 24 57  1  0
 25 58  1  0
 27 59  1  0
 28 60  1  0
 31 61  1  0
 32 62  1  0
 32 63  1  0
 33 64  1  0
 33 65  1  0
 33 66  1  0
 34 67  1  0
 34 68  1  0
 35 69  1  0
 35 70  1  0
 35 71  1  0
M  END
>  <mol_id>  (29) 
V008-1848

>  <drugclip_rank>  (29) 
29

>  <conformer>  (29) 
19

>  <align_rmsd>  (29) 
0.318

$$$$
V027-3914
     RDKit          3D

 69 71  0  0  0  0  0  0  0  0999 V2000
   -7.8585    0.8486    6.0997 C   0  0  0  0  0  0  0  0  0  0  0  0
   -7.9738   -0.4408    5.2807 C   0  0  0  0  0  0  0  0  0  0  0  0
   -9.4339   -0.8980    5.2500 C   0  0  0  0  0  0  0  0  0  0  0  0
   -7.4479   -0.2509    3.8483 C   0  0  0  0  0  0  0  0  0  0  0  0
   -5.9321   -0.1038    3.7657 C   0  0  0  0  0  0  0  0  0  0  0  0
   -5.1982   -0.3513    4.7149 O   0  0  0  0  0  0  0  0  0  0  0  0
   -5.5295    0.2952    2.4993 N   0  0  0  0  0  0  0  0  0  0  0  0
   -4.2132    0.5535    2.0595 C   0  0  0  0  0  0  0  0  0  0  0  0
   -4.0464    0.9222    0.7178 C   0  0  0  0  0  0  0  0  0  0  0  0
   -3.0900    0.4824    2.8846 C   0  0  0  0  0  0  0  0  0  0  0  0
   -1.8157    0.7688    2.3833 C   0  0  0  0  0  0  0  0  0  0  0  0
   -1.6478    1.1097    1.0398 C   0  0  0  0  0  0  0  0  0  0  0  0
   -2.7693    1.1957    0.2123 C   0  0  0  0  0  0  0  0  0  0  0  0
   -2.5247    1.6648   -1.4744 S   0  0  0  0  0  0  0  0  0  0  0  0
   -1.6610    0.6815   -2.0878 O   0  0  0  0  0  0  0  0  0  0  0  0
   -2.2181    3.0798   -1.4707 O   0  0  0  0  0  0  0  0  0  0  0  0
   -4.0467    1.5552   -2.1973 N   0  0  0  0  0  0  0  0  0  0  0  0
   -4.4088    0.3566   -2.9809 C   0  0  0  0  0  0  0  0  0  0  0  0
   -5.8578    0.0019   -2.6367 C   0  0  0  0  0  0  0  0  0  0  0  0
   -4.3051    0.6517   -4.4869 C   0  0  0  0  0  0  0  0  0  0  0  0
   -2.8829    0.8596   -4.9854 C   0  0  0  0  0  0  0  0  0  0  0  0
   -0.4183    1.4554    0.5363 O   0  0  0  0  0  0  0  0  0  0  0  0
    0.6889    0.7721    0.8406 C   0  0  0  0  0  0  0  0  0  0  0  0
    0.9347   -0.5865    0.9788 C   0  0  0  0  0  0  0  0  0  0  0  0
    0.0070   -1.7239    0.7394 C   0  0  0  0  0  0  0  0  0  0  0  0
    2.2861   -0.6747    1.4257 C   0  0  0  0  0  0  0  0  0  0  0  0
    3.0272   -1.8947    1.7721 C   0  0  0  0  0  0  0  0  0  0  0  0
    2.5648   -3.0292    1.7664 O   0  0  0  0  0  0  0  0  0  0  0  0
    4.3244   -1.7092    2.1213 O   0  0  0  0  0  0  0  0  0  0  0  0
    2.8410    0.5424    1.5173 N   0  0  0  0  0  0  0  0  0  0  0  0
    1.9085    1.4125    1.0469 N   0  0  0  0  0  0  0  0  0  0  0  0
    2.2695    2.7851    0.8549 C   0  0  0  0  0  0  0  0  0  0  0  0
    3.5228    3.2286    1.3125 C   0  0  0  0  0  0  0  0  0  0  0  0
    3.9191    4.5561    1.1312 C   0  0  0  0  0  0  0  0  0  0  0  0
    3.0753    5.4520    0.4799 C   0  0  0  0  0  0  0  0  0  0  0  0
    1.8370    5.0216    0.0111 C   0  0  0  0  0  0  0  0  0  0  0  0
    1.4341    3.6931    0.1872 C   0  0  0  0  0  0  0  0  0  0  0  0
   -6.8254    1.2030    6.1512 H   0  0  0  0  0  0  0  0  0  0  0  0
   -8.4659    1.6492    5.6630 H   0  0  0  0  0  0  0  0  0  0  0  0
   -8.2035    0.6863    7.1269 H   0  0  0  0  0  0  0  0  0  0  0  0
   -7.3873   -1.2210    5.7834 H   0  0  0  0  0  0  0  0  0  0  0  0
  -10.0705   -0.1584    4.7498 H   0  0  0  0  0  0  0  0  0  0  0  0
   -9.5337   -1.8491    4.7158 H   0  0  0  0  0  0  0  0  0  0  0  0
   -9.8190   -1.0421    6.2655 H   0  0  0  0  0  0  0  0  0  0  0  0
   -7.7059   -1.1307    3.2459 H   0  0  0  0  0  0  0  0  0  0  0  0
   -7.9221    0.6229    3.3845 H   0  0  0  0  0  0  0  0  0  0  0  0
   -6.2604    0.3974    1.8076 H   0  0  0  0  0  0  0  0  0  0  0  0
   -4.9142    1.0133    0.0733 H   0  0  0  0  0  0  0  0  0  0  0  0
   -3.1668    0.2254    3.9364 H   0  0  0  0  0  0  0  0  0  0  0  0
   -0.9654    0.7372    3.0611 H   0  0  0  0  0  0  0  0  0  0  0  0
   -4.3361    2.4587   -2.5760 H   0  0  0  0  0  0  0  0  0  0  0  0
   -3.7840   -0.5017   -2.7103 H   0  0  0  0  0  0  0  0  0  0  0  0
   -6.2055   -0.8514   -3.2301 H   0  0  0  0  0  0  0  0  0  0  0  0
   -5.9541   -0.2656   -1.5794 H   0  0  0  0  0  0  0  0  0  0  0  0
   -6.5315    0.8464   -2.8272 H   0  0  0  0  0  0  0  0  0  0  0  0
   -4.8993    1.5373   -4.7408 H   0  0  0  0  0  0  0  0  0  0  0  0
   -4.7360   -0.1870   -5.0458 H   0  0  0  0  0  0  0  0  0  0  0  0
   -2.2542   -0.0056   -4.7495 H   0  0  0  0  0  0  0  0  0  0  0  0
   -2.4332    1.7562   -4.5477 H   0  0  0  0  0  0  0  0  0  0  0  0
   -2.8822    0.9899   -6.0730 H   0  0  0  0  0  0  0  0  0  0  0  0
   -0.8587   -1.4288    0.1381 H   0  0  0  0  0  0  0  0  0  0  0  0
    0.5113   -2.5256    0.1888 H   0  0  0  0  0  0  0  0  0  0  0  0
   -0.3552   -2.1297    1.6894 H   0  0  0  0  0  0  0  0  0  0  0  0
    4.6415   -2.6127    2.3146 H   0  0  0  0  0  0  0  0  0  0  0  0
    4.2045    2.5497    1.8237 H   0  0  0  0  0  0  0  0  0  0  0  0
    4.8870    4.8893    1.4988 H   0  0  0  0  0  0  0  0  0  0  0  0
    3.3840    6.4836    0.3351 H   0  0  0  0  0  0  0  0  0  0  0  0
    1.1824    5.7161   -0.5118 H   0  0  0  0  0  0  0  0  0  0  0  0
    0.4764    3.4094   -0.2351 H   0  0  0  0  0  0  0  0  0  0  0  0
  1  2  1  0
  2  3  1  0
  2  4  1  0
  4  5  1  0
  5  6  2  0
  5  7  1  0
  7  8  1  0
  8  9  2  0
  8 10  1  0
 10 11  2  0
 11 12  1  0
 12 13  2  0
 13 14  1  0
 14 15  2  0
 14 16  2  0
 14 17  1  0
 17 18  1  0
 18 19  1  0
 18 20  1  0
 20 21  1  0
 12 22  1  0
 22 23  1  0
 23 24  2  0
 24 25  1  0
 24 26  1  0
 26 27  1  0
 27 28  2  0
 27 29  1  0
 26 30  2  0
 30 31  1  0
 31 32  1  0
 32 33  2  0
 33 34  1  0
 34 35  2  0
 35 36  1  0
 36 37  2  0
 13  9  1  0
 31 23  1  0
 37 32  1  0
  1 38  1  0
  1 39  1  0
  1 40  1  0
  2 41  1  0
  3 42  1  0
  3 43  1  0
  3 44  1  0
  4 45  1  0
  4 46  1  0
  7 47  1  0
  9 48  1  0
 10 49  1  0
 11 50  1  0
 17 51  1  0
 18 52  1  0
 19 53  1  0
 19 54  1  0
 19 55  1  0
 20 56  1  0
 20 57  1  0
 21 58  1  0
 21 59  1  0
 21 60  1  0
 25 61  1  0
 25 62  1  0
 25 63  1  0
 29 64  1  0
 33 65  1  0
 34 66  1  0
 35 67  1  0
 36 68  1  0
 37 69  1  0
M  END
>  <mol_id>  (30) 
V027-3914

>  <drugclip_rank>  (30) 
30

>  <conformer>  (30) 
24

>  <align_rmsd>  (30) 
0.283

$$$$
V027-7724
     RDKit          3D

 71 72  0  0  0  0  0  0  0  0999 V2000
    3.0772    2.9277   -0.1197 C   0  0  0  0  0  0  0  0  0  0  0  0
    1.9157    2.5677    0.8061 C   0  0  0  0  0  0  0  0  0  0  0  0
    2.0446    3.2608    2.1616 C   0  0  0  0  0  0  0  0  0  0  0  0
    1.7829    1.1216    0.9655 N   0  0  0  0  0  0  0  0  0  0  0  0
    2.8067    0.4065    1.4690 N   0  0  0  0  0  0  0  0  0  0  0  0
    2.3697   -0.8681    1.4643 C   0  0  0  0  0  0  0  0  0  0  0  0
    3.2072   -1.9857    1.9205 C   0  0  0  0  0  0  0  0  0  0  0  0
    2.8589   -3.1597    1.9679 O   0  0  0  0  0  0  0  0  0  0  0  0
    4.4563   -1.6508    2.3273 O   0  0  0  0  0  0  0  0  0  0  0  0
    1.0264   -0.9430    0.9701 C   0  0  0  0  0  0  0  0  0  0  0  0
    0.2097   -2.1680    0.7765 C   0  0  0  0  0  0  0  0  0  0  0  0
    0.6642    0.3689    0.7195 C   0  0  0  0  0  0  0  0  0  0  0  0
   -0.4502    0.9413    0.2675 O   0  0  0  0  0  0  0  0  0  0  0  0
   -1.6723    0.7830    0.8752 C   0  0  0  0  0  0  0  0  0  0  0  0
   -2.8113    1.1787    0.1647 C   0  0  0  0  0  0  0  0  0  0  0  0
   -2.5988    1.7935   -1.4837 S   0  0  0  0  0  0  0  0  0  0  0  0
   -2.0455    3.1258   -1.3601 O   0  0  0  0  0  0  0  0  0  0  0  0
   -1.9619    0.7614   -2.2714 O   0  0  0  0  0  0  0  0  0  0  0  0
   -4.1521    2.0176   -2.0878 N   0  0  0  0  0  0  0  0  0  0  0  0
   -4.8219    0.9355   -2.8328 C   0  0  0  0  0  0  0  0  0  0  0  0
   -6.3263    1.0724   -2.6002 C   0  0  0  0  0  0  0  0  0  0  0  0
   -4.4603    1.0586   -4.3219 C   0  0  0  0  0  0  0  0  0  0  0  0
   -5.0308   -0.0603   -5.1805 C   0  0  0  0  0  0  0  0  0  0  0  0
   -1.8206    0.3338    2.1892 C   0  0  0  0  0  0  0  0  0  0  0  0
   -3.0900    0.2637    2.7713 C   0  0  0  0  0  0  0  0  0  0  0  0
   -4.2285    0.6672    2.0634 C   0  0  0  0  0  0  0  0  0  0  0  0
   -4.0823    1.1273    0.7547 C   0  0  0  0  0  0  0  0  0  0  0  0
   -5.4599    0.6065    2.7489 N   0  0  0  0  0  0  0  0  0  0  0  0
   -6.7010    1.0158    2.2950 C   0  0  0  0  0  0  0  0  0  0  0  0
   -6.9603    1.4598    1.1816 O   0  0  0  0  0  0  0  0  0  0  0  0
   -7.7917    0.8883    3.3503 C   0  0  0  0  0  0  0  0  0  0  0  0
   -7.9410    2.1152    4.2809 C   0  0  0  0  0  0  0  0  0  0  0  0
   -8.2292    3.3915    3.4724 C   0  0  0  0  0  0  0  0  0  0  0  0
   -9.1331    1.8571    5.2225 C   0  0  0  0  0  0  0  0  0  0  0  0
   -6.6860    2.3347    5.1428 C   0  0  0  0  0  0  0  0  0  0  0  0
    4.0458    2.6609    0.3216 H   0  0  0  0  0  0  0  0  0  0  0  0
    3.0871    4.0040   -0.3232 H   0  0  0  0  0  0  0  0  0  0  0  0
    2.9899    2.4040   -1.0784 H   0  0  0  0  0  0  0  0  0  0  0  0
    0.9935    2.9225    0.3307 H   0  0  0  0  0  0  0  0  0  0  0  0
    2.9552    2.9531    2.6873 H   0  0  0  0  0  0  0  0  0  0  0  0
    2.0763    4.3483    2.0419 H   0  0  0  0  0  0  0  0  0  0  0  0
    1.1926    3.0173    2.8073 H   0  0  0  0  0  0  0  0  0  0  0  0
    4.8520   -2.5054    2.5859 H   0  0  0  0  0  0  0  0  0  0  0  0
   -0.1112   -2.5638    1.7470 H   0  0  0  0  0  0  0  0  0  0  0  0
   -0.6847   -1.9688    0.1769 H   0  0  0  0  0  0  0  0  0  0  0  0
    0.7843   -2.9426    0.2582 H   0  0  0  0  0  0  0  0  0  0  0  0
   -4.3255    2.9798   -2.3785 H   0  0  0  0  0  0  0  0  0  0  0  0
   -4.5037   -0.0378   -2.4409 H   0  0  0  0  0  0  0  0  0  0  0  0
   -6.8798    0.2538   -3.0693 H   0  0  0  0  0  0  0  0  0  0  0  0
   -6.7084    2.0181   -3.0020 H   0  0  0  0  0  0  0  0  0  0  0  0
   -6.5604    1.0510   -1.5325 H   0  0  0  0  0  0  0  0  0  0  0  0
   -3.3710    1.0553   -4.4425 H   0  0  0  0  0  0  0  0  0  0  0  0
   -4.8024    2.0241   -4.7148 H   0  0  0  0  0  0  0  0  0  0  0  0
   -4.6507    0.0216   -6.2036 H   0  0  0  0  0  0  0  0  0  0  0  0
   -6.1223   -0.0101   -5.2316 H   0  0  0  0  0  0  0  0  0  0  0  0
   -4.7443   -1.0427   -4.7906 H   0  0  0  0  0  0  0  0  0  0  0  0
   -0.9587    0.0537    2.7884 H   0  0  0  0  0  0  0  0  0  0  0  0
   -3.1663   -0.0865    3.7984 H   0  0  0  0  0  0  0  0  0  0  0  0
   -4.9407    1.4707    0.1909 H   0  0  0  0  0  0  0  0  0  0  0  0
   -5.4203    0.2553    3.6978 H   0  0  0  0  0  0  0  0  0  0  0  0
   -8.7320    0.7012    2.8147 H   0  0  0  0  0  0  0  0  0  0  0  0
   -7.6051   -0.0179    3.9420 H   0  0  0  0  0  0  0  0  0  0  0  0
   -9.1189    3.2694    2.8450 H   0  0  0  0  0  0  0  0  0  0  0  0
   -8.4029    4.2469    4.1342 H   0  0  0  0  0  0  0  0  0  0  0  0
   -7.3916    3.6531    2.8186 H   0  0  0  0  0  0  0  0  0  0  0  0
  -10.0634    1.7260    4.6589 H   0  0  0  0  0  0  0  0  0  0  0  0
   -8.9751    0.9541    5.8214 H   0  0  0  0  0  0  0  0  0  0  0  0
   -9.2839    2.6932    5.9153 H   0  0  0  0  0  0  0  0  0  0  0  0
   -6.8480    3.1297    5.8808 H   0  0  0  0  0  0  0  0  0  0  0  0
   -6.4205    1.4250    5.6931 H   0  0  0  0  0  0  0  0  0  0  0  0
   -5.8259    2.6310    4.5351 H   0  0  0  0  0  0  0  0  0  0  0  0
  1  2  1  0
  2  3  1  0
  2  4  1  0
  4  5  1  0
  5  6  2  0
  6  7  1  0
  7  8  2  0
  7  9  1  0
  6 10  1  0
 10 11  1  0
 10 12  2  0
 12 13  1  0
 13 14  1  0
 14 15  2  0
 15 16  1  0
 16 17  2  0
 16 18  2  0
 16 19  1  0
 19 20  1  0
 20 21  1  0
 20 22  1  0
 22 23  1  0
 14 24  1  0
 24 25  2  0
 25 26  1  0
 26 27  2  0
 26 28  1  0
 28 29  1  0
 29 30  2  0
 29 31  1  0
 31 32  1  0
 32 33  1  0
 32 34  1  0
 32 35  1  0
 12  4  1  0
 27 15  1  0
  1 36  1  0
  1 37  1  0
  1 38  1  0
  2 39  1  0
  3 40  1  0
  3 41  1  0
  3 42  1  0
  9 43  1  0
 11 44  1  0
 11 45  1  0
 11 46  1  0
 19 47  1  0
 20 48  1  0
 21 49  1  0
 21 50  1  0
 21 51  1  0
 22 52  1  0
 22 53  1  0
 23 54  1  0
 23 55  1  0
 23 56  1  0
 24 57  1  0
 25 58  1  0
 27 59  1  0
 28 60  1  0
 31 61  1  0
 31 62  1  0
 33 63  1  0
 33 64  1  0
 33 65  1  0
 34 66  1  0
 34 67  1  0
 34 68  1  0
 35 69  1  0
 35 70  1  0
 35 71  1  0
M  END
>  <mol_id>  (31) 
V027-7724

>  <drugclip_rank>  (31) 
31

>  <conformer>  (31) 
31

>  <align_rmsd>  (31) 
0.587

$$$$
V030-1799
     RDKit          3D

 68 69  0  0  0  0  0  0  0  0999 V2000
    1.5417    3.5814    1.9510 C   0  0  0  0  0  0  0  0  0  0  0  0
    2.2401    2.7376    0.8679 C   0  0  0  0  0  0  0  0  0  0  0  0
    1.8118    3.2179   -0.5341 C   0  0  0  0  0  0  0  0  0  0  0  0
    3.7639    2.9906    0.9862 C   0  0  0  0  0  0  0  0  0  0  0  0
    1.9096    1.3086    1.0554 N   0  0  0  0  0  0  0  0  0  0  0  0
    2.8651    0.4498    1.4661 N   0  0  0  0  0  0  0  0  0  0  0  0
    2.2711   -0.7560    1.4924 C   0  0  0  0  0  0  0  0  0  0  0  0
    2.9954   -1.9765    1.8750 C   0  0  0  0  0  0  0  0  0  0  0  0
    2.5055   -3.0968    1.9627 O   0  0  0  0  0  0  0  0  0  0  0  0
    4.3111   -1.8107    2.1603 O   0  0  0  0  0  0  0  0  0  0  0  0
    0.8958   -0.6514    1.1136 C   0  0  0  0  0  0  0  0  0  0  0  0
   -0.0686   -1.7715    0.9630 C   0  0  0  0  0  0  0  0  0  0  0  0
    0.6771    0.7046    0.9280 C   0  0  0  0  0  0  0  0  0  0  0  0
   -0.3996    1.4304    0.6184 O   0  0  0  0  0  0  0  0  0  0  0  0
   -1.6470    1.1176    1.0936 C   0  0  0  0  0  0  0  0  0  0  0  0
   -2.7468    1.2088    0.2414 C   0  0  0  0  0  0  0  0  0  0  0  0
   -2.4803    1.6286   -1.4565 S   0  0  0  0  0  0  0  0  0  0  0  0
   -1.4633    0.7587   -2.0028 O   0  0  0  0  0  0  0  0  0  0  0  0
   -2.3903    3.0713   -1.5228 O   0  0  0  0  0  0  0  0  0  0  0  0
   -3.9344    1.2412   -2.2212 N   0  0  0  0  0  0  0  0  0  0  0  0
   -4.1406   -0.1167   -2.7566 C   0  0  0  0  0  0  0  0  0  0  0  0
   -5.6209   -0.4657   -2.6160 C   0  0  0  0  0  0  0  0  0  0  0  0
   -3.6506   -0.2181   -4.2098 C   0  0  0  0  0  0  0  0  0  0  0  0
   -4.3576    0.6964   -5.2048 C   0  0  0  0  0  0  0  0  0  0  0  0
   -1.8516    0.8144    2.4412 C   0  0  0  0  0  0  0  0  0  0  0  0
   -3.1421    0.5689    2.9234 C   0  0  0  0  0  0  0  0  0  0  0  0
   -4.2461    0.6479    2.0731 C   0  0  0  0  0  0  0  0  0  0  0  0
   -4.0415    0.9761    0.7273 C   0  0  0  0  0  0  0  0  0  0  0  0
   -5.5762    0.4198    2.4824 N   0  0  0  0  0  0  0  0  0  0  0  0
   -6.0275    0.1198    3.7604 C   0  0  0  0  0  0  0  0  0  0  0  0
   -5.3332    0.0286    4.7677 O   0  0  0  0  0  0  0  0  0  0  0  0
   -7.5431   -0.1048    3.8025 C   0  0  0  0  0  0  0  0  0  0  0  0
   -8.0554   -0.1326    5.2423 C   0  0  0  0  0  0  0  0  0  0  0  0
   -7.9071   -1.4047    3.0869 C   0  0  0  0  0  0  0  0  0  0  0  0
    1.8245    4.6373    1.8728 H   0  0  0  0  0  0  0  0  0  0  0  0
    1.8116    3.2364    2.9560 H   0  0  0  0  0  0  0  0  0  0  0  0
    0.4512    3.5319    1.8712 H   0  0  0  0  0  0  0  0  0  0  0  0
    2.1354    4.2499   -0.7110 H   0  0  0  0  0  0  0  0  0  0  0  0
    0.7251    3.2029   -0.6681 H   0  0  0  0  0  0  0  0  0  0  0  0
    2.2495    2.5885   -1.3173 H   0  0  0  0  0  0  0  0  0  0  0  0
    4.3271    2.3985    0.2540 H   0  0  0  0  0  0  0  0  0  0  0  0
    4.1386    2.7370    1.9863 H   0  0  0  0  0  0  0  0  0  0  0  0
    4.0033    4.0465    0.8100 H   0  0  0  0  0  0  0  0  0  0  0  0
    4.6095   -2.7104    2.3916 H   0  0  0  0  0  0  0  0  0  0  0  0
   -0.4315   -2.1005    1.9404 H   0  0  0  0  0  0  0  0  0  0  0  0
   -0.9283   -1.4849    0.3511 H   0  0  0  0  0  0  0  0  0  0  0  0
    0.4006   -2.6238    0.4615 H   0  0  0  0  0  0  0  0  0  0  0  0
   -4.3074    2.0343   -2.7440 H   0  0  0  0  0  0  0  0  0  0  0  0
   -3.5808   -0.8368   -2.1473 H   0  0  0  0  0  0  0  0  0  0  0  0
   -6.2668    0.2829   -3.0873 H   0  0  0  0  0  0  0  0  0  0  0  0
   -5.9054   -0.5152   -1.5587 H   0  0  0  0  0  0  0  0  0  0  0  0
   -5.8370   -1.4412   -3.0650 H   0  0  0  0  0  0  0  0  0  0  0  0
   -3.7714   -1.2556   -4.5484 H   0  0  0  0  0  0  0  0  0  0  0  0
   -2.5762   -0.0034   -4.2553 H   0  0  0  0  0  0  0  0  0  0  0  0
   -4.2074    1.7525   -4.9579 H   0  0  0  0  0  0  0  0  0  0  0  0
   -5.4333    0.4983   -5.2475 H   0  0  0  0  0  0  0  0  0  0  0  0
   -3.9535    0.5310   -6.2082 H   0  0  0  0  0  0  0  0  0  0  0  0
   -1.0130    0.7749    3.1328 H   0  0  0  0  0  0  0  0  0  0  0  0
   -3.2470    0.3287    3.9772 H   0  0  0  0  0  0  0  0  0  0  0  0
   -4.8934    1.0708    0.0610 H   0  0  0  0  0  0  0  0  0  0  0  0
   -6.2825    0.4915    1.7640 H   0  0  0  0  0  0  0  0  0  0  0  0
   -8.0221    0.7388    3.2891 H   0  0  0  0  0  0  0  0  0  0  0  0
   -9.1441   -0.2420    5.2655 H   0  0  0  0  0  0  0  0  0  0  0  0
   -7.7997    0.7971    5.7643 H   0  0  0  0  0  0  0  0  0  0  0  0
   -7.6184   -0.9618    5.8101 H   0  0  0  0  0  0  0  0  0  0  0  0
   -8.9856   -1.5886    3.1365 H   0  0  0  0  0  0  0  0  0  0  0  0
   -7.6233   -1.3727    2.0287 H   0  0  0  0  0  0  0  0  0  0  0  0
   -7.3929   -2.2612    3.5385 H   0  0  0  0  0  0  0  0  0  0  0  0
  1  2  1  0
  2  3  1  0
  2  4  1  0
  2  5  1  0
  5  6  1  0
  6  7  2  0
  7  8  1  0
  8  9  2  0
  8 10  1  0
  7 11  1  0
 11 12  1  0
 11 13  2  0
 13 14  1  0
 14 15  1  0
 15 16  2  0
 16 17  1  0
 17 18  2  0
 17 19  2  0
 17 20  1  0
 20 21  1  0
 21 22  1  0
 21 23  1  0
 23 24  1  0
 15 25  1  0
 25 26  2  0
 26 27  1  0
 27 28  2  0
 27 29  1  0
 29 30  1  0
 30 31  2  0
 30 32  1  0
 32 33  1  0
 32 34  1  0
 13  5  1  0
 28 16  1  0
  1 35  1  0
  1 36  1  0
  1 37  1  0
  3 38  1  0
  3 39  1  0
  3 40  1  0
  4 41  1  0
  4 42  1  0
  4 43  1  0
 10 44  1  0
 12 45  1  0
 12 46  1  0
 12 47  1  0
 20 48  1  0
 21 49  1  0
 22 50  1  0
 22 51  1  0
 22 52  1  0
 23 53  1  0
 23 54  1  0
 24 55  1  0
 24 56  1  0
 24 57  1  0
 25 58  1  0
 26 59  1  0
 28 60  1  0
 29 61  1  0
 32 62  1  0
 33 63  1  0
 33 64  1  0
 33 65  1  0
 34 66  1  0
 34 67  1  0
 34 68  1  0
M  END
>  <mol_id>  (32) 
V030-1799

>  <drugclip_rank>  (32) 
32

>  <conformer>  (32) 
25

>  <align_rmsd>  (32) 
0.211

$$$$
V007-7784
     RDKit          3D

 68 69  0  0  0  0  0  0  0  0999 V2000
    4.9006   -0.8668    2.1373 O   0  0  0  0  0  0  0  0  0  0  0  0
    3.7147   -1.0428    1.8839 C   0  0  0  0  0  0  0  0  0  0  0  0
    3.2348   -2.3114    1.9066 O   0  0  0  0  0  0  0  0  0  0  0  0
    2.7237   -0.0054    1.5607 C   0  0  0  0  0  0  0  0  0  0  0  0
    1.3485   -0.1584    1.1682 C   0  0  0  0  0  0  0  0  0  0  0  0
    0.6146   -1.4310    0.9413 C   0  0  0  0  0  0  0  0  0  0  0  0
    0.8686    1.1368    1.0403 C   0  0  0  0  0  0  0  0  0  0  0  0
    1.9483    1.9515    1.2471 N   0  0  0  0  0  0  0  0  0  0  0  0
    3.0602    1.2966    1.6153 N   0  0  0  0  0  0  0  0  0  0  0  0
    1.9768    3.3995    1.1422 C   0  0  0  0  0  0  0  0  0  0  0  0
    1.5826    4.0764    2.4432 C   0  0  0  0  0  0  0  0  0  0  0  0
   -0.3160    1.6730    0.7370 O   0  0  0  0  0  0  0  0  0  0  0  0
   -1.4910    1.1126    1.1690 C   0  0  0  0  0  0  0  0  0  0  0  0
   -2.5638    0.9973    0.2860 C   0  0  0  0  0  0  0  0  0  0  0  0
   -2.3578    1.5622   -1.3777 S   0  0  0  0  0  0  0  0  0  0  0  0
   -1.6490    0.5350   -2.1061 O   0  0  0  0  0  0  0  0  0  0  0  0
   -1.9123    2.9384   -1.3243 O   0  0  0  0  0  0  0  0  0  0  0  0
   -3.9324    1.6722   -1.9918 N   0  0  0  0  0  0  0  0  0  0  0  0
   -4.4226    0.6171   -2.9064 C   0  0  0  0  0  0  0  0  0  0  0  0
   -5.9481    0.5928   -2.7930 C   0  0  0  0  0  0  0  0  0  0  0  0
   -3.9611    0.9281   -4.3388 C   0  0  0  0  0  0  0  0  0  0  0  0
   -4.3109   -0.1689   -5.3341 C   0  0  0  0  0  0  0  0  0  0  0  0
   -1.6551    0.7176    2.4985 C   0  0  0  0  0  0  0  0  0  0  0  0
   -2.8695    0.1731    2.9297 C   0  0  0  0  0  0  0  0  0  0  0  0
   -3.9384    0.0305    2.0443 C   0  0  0  0  0  0  0  0  0  0  0  0
   -3.7797    0.4500    0.7175 C   0  0  0  0  0  0  0  0  0  0  0  0
   -5.1921   -0.5088    2.4010 N   0  0  0  0  0  0  0  0  0  0  0  0
   -5.5951   -0.9629    3.6488 C   0  0  0  0  0  0  0  0  0  0  0  0
   -4.9140   -0.9613    4.6680 O   0  0  0  0  0  0  0  0  0  0  0  0
   -7.0521   -1.4549    3.6450 C   0  0  0  0  0  0  0  0  0  0  0  0
   -7.3453   -2.3643    4.8534 C   0  0  0  0  0  0  0  0  0  0  0  0
   -6.5995   -3.6924    4.7820 C   0  0  0  0  0  0  0  0  0  0  0  0
   -7.9781   -0.2209    3.6149 C   0  0  0  0  0  0  0  0  0  0  0  0
   -9.4374   -0.5595    3.3445 C   0  0  0  0  0  0  0  0  0  0  0  0
    4.0364   -2.8234    2.1399 H   0  0  0  0  0  0  0  0  0  0  0  0
   -0.3062   -1.2738    0.3734 H   0  0  0  0  0  0  0  0  0  0  0  0
    0.3551   -1.8984    1.8967 H   0  0  0  0  0  0  0  0  0  0  0  0
    1.2201   -2.1325    0.3588 H   0  0  0  0  0  0  0  0  0  0  0  0
    1.3009    3.6912    0.3307 H   0  0  0  0  0  0  0  0  0  0  0  0
    2.9912    3.6918    0.8470 H   0  0  0  0  0  0  0  0  0  0  0  0
    0.5617    3.8085    2.7354 H   0  0  0  0  0  0  0  0  0  0  0  0
    2.2508    3.7819    3.2593 H   0  0  0  0  0  0  0  0  0  0  0  0
    1.6331    5.1644    2.3353 H   0  0  0  0  0  0  0  0  0  0  0  0
   -4.1256    2.6367   -2.2712 H   0  0  0  0  0  0  0  0  0  0  0  0
   -4.0462   -0.3595   -2.5801 H   0  0  0  0  0  0  0  0  0  0  0  0
   -6.3891    1.5361   -3.1358 H   0  0  0  0  0  0  0  0  0  0  0  0
   -6.3807   -0.2213   -3.3830 H   0  0  0  0  0  0  0  0  0  0  0  0
   -6.2596    0.4447   -1.7533 H   0  0  0  0  0  0  0  0  0  0  0  0
   -4.3985    1.8754   -4.6784 H   0  0  0  0  0  0  0  0  0  0  0  0
   -2.8748    1.0726   -4.3612 H   0  0  0  0  0  0  0  0  0  0  0  0
   -3.8677    0.0546   -6.3094 H   0  0  0  0  0  0  0  0  0  0  0  0
   -3.9262   -1.1386   -5.0017 H   0  0  0  0  0  0  0  0  0  0  0  0
   -5.3926   -0.2539   -5.4752 H   0  0  0  0  0  0  0  0  0  0  0  0
   -0.8447    0.8318    3.2146 H   0  0  0  0  0  0  0  0  0  0  0  0
   -2.9437   -0.1255    3.9710 H   0  0  0  0  0  0  0  0  0  0  0  0
   -4.6061    0.3547    0.0226 H   0  0  0  0  0  0  0  0  0  0  0  0
   -5.8806   -0.5616    1.6607 H   0  0  0  0  0  0  0  0  0  0  0  0
   -7.2058   -2.0389    2.7271 H   0  0  0  0  0  0  0  0  0  0  0  0
   -8.4144   -2.5947    4.9014 H   0  0  0  0  0  0  0  0  0  0  0  0
   -7.0882   -1.8566    5.7903 H   0  0  0  0  0  0  0  0  0  0  0  0
   -6.8538   -4.2346    3.8658 H   0  0  0  0  0  0  0  0  0  0  0  0
   -5.5152   -3.5524    4.8092 H   0  0  0  0  0  0  0  0  0  0  0  0
   -6.8750   -4.3231    5.6336 H   0  0  0  0  0  0  0  0  0  0  0  0
   -7.6490    0.4763    2.8345 H   0  0  0  0  0  0  0  0  0  0  0  0
   -7.9012    0.3278    4.5620 H   0  0  0  0  0  0  0  0  0  0  0  0
  -10.0133    0.3593    3.1963 H   0  0  0  0  0  0  0  0  0  0  0  0
   -9.5398   -1.1714    2.4434 H   0  0  0  0  0  0  0  0  0  0  0  0
   -9.8894   -1.0956    4.1830 H   0  0  0  0  0  0  0  0  0  0  0  0
  1  2  2  0
  2  3  1  0
  2  4  1  0
  4  5  1  0
  5  6  1  0
  5  7  2  0
  7  8  1  0
  8  9  1  0
  8 10  1  0
 10 11  1  0
  7 12  1  0
 12 13  1  0
 13 14  2  0
 14 15  1  0
 15 16  2  0
 15 17  2  0
 15 18  1  0
 18 19  1  0
 19 20  1  0
 19 21  1  0
 21 22  1  0
 13 23  1  0
 23 24  2  0
 24 25  1  0
 25 26  2  0
 25 27  1  0
 27 28  1  0
 28 29  2  0
 28 30  1  0
 30 31  1  0
 31 32  1  0
 30 33  1  0
 33 34  1  0
  9  4  2  0
 26 14  1  0
  3 35  1  0
  6 36  1  0
  6 37  1  0
  6 38  1  0
 10 39  1  0
 10 40  1  0
 11 41  1  0
 11 42  1  0
 11 43  1  0
 18 44  1  0
 19 45  1  0
 20 46  1  0
 20 47  1  0
 20 48  1  0
 21 49  1  0
 21 50  1  0
 22 51  1  0
 22 52  1  0
 22 53  1  0
 23 54  1  0
 24 55  1  0
 26 56  1  0
 27 57  1  0
 30 58  1  0
 31 59  1  0
 31 60  1  0
 32 61  1  0
 32 62  1  0
 32 63  1  0
 33 64  1  0
 33 65  1  0
 34 66  1  0
 34 67  1  0
 34 68  1  0
M  END
>  <mol_id>  (33) 
V007-7784

>  <drugclip_rank>  (33) 
33

>  <conformer>  (33) 
38

>  <align_rmsd>  (33) 
0.623

$$$$
V007-7738
     RDKit          3D

 65 66  0  0  0  0  0  0  0  0999 V2000
    3.6435    3.1459    1.2430 C   0  0  0  0  0  0  0  0  0  0  0  0
    2.1437    2.8480    0.9939 C   0  0  0  0  0  0  0  0  0  0  0  0
    1.8181    3.3218   -0.4366 C   0  0  0  0  0  0  0  0  0  0  0  0
    1.3355    3.6657    2.0196 C   0  0  0  0  0  0  0  0  0  0  0  0
    1.8422    1.4077    1.1375 N   0  0  0  0  0  0  0  0  0  0  0  0
    2.8105    0.5579    1.5358 N   0  0  0  0  0  0  0  0  0  0  0  0
    2.2500   -0.6630    1.4933 C   0  0  0  0  0  0  0  0  0  0  0  0
    3.0016   -1.8800    1.8305 C   0  0  0  0  0  0  0  0  0  0  0  0
    2.5355   -3.0124    1.8792 O   0  0  0  0  0  0  0  0  0  0  0  0
    4.3149   -1.6941    2.1141 O   0  0  0  0  0  0  0  0  0  0  0  0
    0.8791   -0.5781    1.0946 C   0  0  0  0  0  0  0  0  0  0  0  0
   -0.0532   -1.7143    0.8774 C   0  0  0  0  0  0  0  0  0  0  0  0
    0.6298    0.7783    0.9543 C   0  0  0  0  0  0  0  0  0  0  0  0
   -0.4591    1.4852    0.6441 O   0  0  0  0  0  0  0  0  0  0  0  0
   -1.7049    1.1240    1.0922 C   0  0  0  0  0  0  0  0  0  0  0  0
   -2.7919    1.1867    0.2192 C   0  0  0  0  0  0  0  0  0  0  0  0
   -2.4944    1.6671   -1.4565 S   0  0  0  0  0  0  0  0  0  0  0  0
   -1.6459    0.6724   -2.0749 O   0  0  0  0  0  0  0  0  0  0  0  0
   -2.1540    3.0736   -1.4406 O   0  0  0  0  0  0  0  0  0  0  0  0
   -3.9947    1.5935   -2.2168 N   0  0  0  0  0  0  0  0  0  0  0  0
   -4.4021    0.3249   -2.8321 C   0  0  0  0  0  0  0  0  0  0  0  0
   -5.9092    0.3224   -3.0806 C   0  0  0  0  0  0  0  0  0  0  0  0
   -6.3353    1.2849   -4.1804 C   0  0  0  0  0  0  0  0  0  0  0  0
   -1.9190    0.7808    2.4290 C   0  0  0  0  0  0  0  0  0  0  0  0
   -3.2048    0.4605    2.8723 C   0  0  0  0  0  0  0  0  0  0  0  0
   -4.2957    0.4966    1.9943 C   0  0  0  0  0  0  0  0  0  0  0  0
   -4.0837    0.8745    0.6670 C   0  0  0  0  0  0  0  0  0  0  0  0
   -5.5554    0.1505    2.5258 N   0  0  0  0  0  0  0  0  0  0  0  0
   -6.7633    0.0575    1.8508 C   0  0  0  0  0  0  0  0  0  0  0  0
   -6.9338    0.2554    0.6525 O   0  0  0  0  0  0  0  0  0  0  0  0
   -7.9170   -0.3461    2.7748 C   0  0  0  0  0  0  0  0  0  0  0  0
   -9.2667   -0.1561    2.0848 C   0  0  0  0  0  0  0  0  0  0  0  0
   -7.7565   -1.7955    3.2308 C   0  0  0  0  0  0  0  0  0  0  0  0
    3.9462    2.8676    2.2597 H   0  0  0  0  0  0  0  0  0  0  0  0
    4.2830    2.5988    0.5400 H   0  0  0  0  0  0  0  0  0  0  0  0
    3.8600    4.2137    1.1201 H   0  0  0  0  0  0  0  0  0  0  0  0
    2.3529    2.7216   -1.1819 H   0  0  0  0  0  0  0  0  0  0  0  0
    0.7504    3.2521   -0.6648 H   0  0  0  0  0  0  0  0  0  0  0  0
    2.1066    4.3695   -0.5805 H   0  0  0  0  0  0  0  0  0  0  0  0
    0.2576    3.6069    1.8398 H   0  0  0  0  0  0  0  0  0  0  0  0
    1.6082    4.7269    1.9811 H   0  0  0  0  0  0  0  0  0  0  0  0
    1.5183    3.3094    3.0402 H   0  0  0  0  0  0  0  0  0  0  0  0
    4.6377   -2.5945    2.3099 H   0  0  0  0  0  0  0  0  0  0  0  0
   -0.4423   -2.0772    1.8338 H   0  0  0  0  0  0  0  0  0  0  0  0
    0.4513   -2.5432    0.3712 H   0  0  0  0  0  0  0  0  0  0  0  0
   -0.8983   -1.4298    0.2440 H   0  0  0  0  0  0  0  0  0  0  0  0
   -4.1978    2.4576   -2.7178 H   0  0  0  0  0  0  0  0  0  0  0  0
   -4.1587   -0.5084   -2.1643 H   0  0  0  0  0  0  0  0  0  0  0  0
   -3.8634    0.1850   -3.7751 H   0  0  0  0  0  0  0  0  0  0  0  0
   -6.2146   -0.6899   -3.3704 H   0  0  0  0  0  0  0  0  0  0  0  0
   -6.4459    0.5687   -2.1576 H   0  0  0  0  0  0  0  0  0  0  0  0
   -7.4129    1.2031   -4.3555 H   0  0  0  0  0  0  0  0  0  0  0  0
   -6.1197    2.3235   -3.9119 H   0  0  0  0  0  0  0  0  0  0  0  0
   -5.8220    1.0582   -5.1203 H   0  0  0  0  0  0  0  0  0  0  0  0
   -1.0911    0.7652    3.1338 H   0  0  0  0  0  0  0  0  0  0  0  0
   -3.3368    0.1861    3.9162 H   0  0  0  0  0  0  0  0  0  0  0  0
   -4.9141    0.9446   -0.0248 H   0  0  0  0  0  0  0  0  0  0  0  0
   -5.5732   -0.0646    3.5150 H   0  0  0  0  0  0  0  0  0  0  0  0
   -7.8898    0.3131    3.6518 H   0  0  0  0  0  0  0  0  0  0  0  0
  -10.0900   -0.3874    2.7689 H   0  0  0  0  0  0  0  0  0  0  0  0
   -9.3627   -0.8041    1.2066 H   0  0  0  0  0  0  0  0  0  0  0  0
   -9.3893    0.8791    1.7482 H   0  0  0  0  0  0  0  0  0  0  0  0
   -6.8311   -1.9388    3.7983 H   0  0  0  0  0  0  0  0  0  0  0  0
   -8.5896   -2.0970    3.8745 H   0  0  0  0  0  0  0  0  0  0  0  0
   -7.7229   -2.4769    2.3732 H   0  0  0  0  0  0  0  0  0  0  0  0
  1  2  1  0
  2  3  1  0
  2  4  1  0
  2  5  1  0
  5  6  1  0
  6  7  2  0
  7  8  1  0
  8  9  2  0
  8 10  1  0
  7 11  1  0
 11 12  1  0
 11 13  2  0
 13 14  1  0
 14 15  1  0
 15 16  2  0
 16 17  1  0
 17 18  2  0
 17 19  2  0
 17 20  1  0
 20 21  1  0
 21 22  1  0
 22 23  1  0
 15 24  1  0
 24 25  2  0
 25 26  1  0
 26 27  2  0
 26 28  1  0
 28 29  1  0
 29 30  2  0
 29 31  1  0
 31 32  1  0
 31 33  1  0
 13  5  1  0
 27 16  1  0
  1 34  1  0
  1 35  1  0
  1 36  1  0
  3 37  1  0
  3 38  1  0
  3 39  1  0
  4 40  1  0
  4 41  1  0
  4 42  1  0
 10 43  1  0
 12 44  1  0
 12 45  1  0
 12 46  1  0
 20 47  1  0
 21 48  1  0
 21 49  1  0
 22 50  1  0
 22 51  1  0
 23 52  1  0
 23 53  1  0
 23 54  1  0
 24 55  1  0
 25 56  1  0
 27 57  1  0
 28 58  1  0
 31 59  1  0
 32 60  1  0
 32 61  1  0
 32 62  1  0
 33 63  1  0
 33 64  1  0
 33 65  1  0
M  END
>  <mol_id>  (34) 
V007-7738

>  <drugclip_rank>  (34) 
34

>  <conformer>  (34) 
2

>  <align_rmsd>  (34) 
0.303

$$$$
V027-7822
     RDKit          3D

 65 66  0  0  0  0  0  0  0  0999 V2000
    4.9097   -1.2422    2.0689 O   0  0  0  0  0  0  0  0  0  0  0  0
    3.7019   -1.3442    1.8909 C   0  0  0  0  0  0  0  0  0  0  0  0
    3.1276   -2.5579    2.0797 O   0  0  0  0  0  0  0  0  0  0  0  0
    2.7774   -0.2697    1.4992 C   0  0  0  0  0  0  0  0  0  0  0  0
    1.3694   -0.3429    1.2143 C   0  0  0  0  0  0  0  0  0  0  0  0
    0.5158   -1.5585    1.1893 C   0  0  0  0  0  0  0  0  0  0  0  0
    0.9892    0.9657    0.9581 C   0  0  0  0  0  0  0  0  0  0  0  0
    2.1453    1.6971    0.9893 N   0  0  0  0  0  0  0  0  0  0  0  0
    3.2231    0.9934    1.3677 N   0  0  0  0  0  0  0  0  0  0  0  0
    2.2832    3.1136    0.7053 C   0  0  0  0  0  0  0  0  0  0  0  0
    2.4507    3.3828   -0.7797 C   0  0  0  0  0  0  0  0  0  0  0  0
   -0.1644    1.5665    0.6560 O   0  0  0  0  0  0  0  0  0  0  0  0
   -1.3543    1.1546    1.1980 C   0  0  0  0  0  0  0  0  0  0  0  0
   -2.4862    1.0612    0.3903 C   0  0  0  0  0  0  0  0  0  0  0  0
   -2.3482    1.3755   -1.3450 S   0  0  0  0  0  0  0  0  0  0  0  0
   -1.1703    0.7245   -1.8690 O   0  0  0  0  0  0  0  0  0  0  0  0
   -2.5847    2.7938   -1.5193 O   0  0  0  0  0  0  0  0  0  0  0  0
   -3.7016    0.6272   -2.0196 N   0  0  0  0  0  0  0  0  0  0  0  0
   -3.7140   -0.7667   -2.5299 C   0  0  0  0  0  0  0  0  0  0  0  0
   -5.1990   -1.1470   -2.6844 C   0  0  0  0  0  0  0  0  0  0  0  0
   -3.0625   -1.7654   -1.5692 C   0  0  0  0  0  0  0  0  0  0  0  0
   -3.0508   -0.8161   -3.9110 C   0  0  0  0  0  0  0  0  0  0  0  0
   -1.4790    0.9365    2.5725 C   0  0  0  0  0  0  0  0  0  0  0  0
   -2.7182    0.5970    3.1279 C   0  0  0  0  0  0  0  0  0  0  0  0
   -3.8532    0.4934    2.3226 C   0  0  0  0  0  0  0  0  0  0  0  0
   -3.7313    0.7348    0.9493 C   0  0  0  0  0  0  0  0  0  0  0  0
   -5.1384    0.1687    2.8051 N   0  0  0  0  0  0  0  0  0  0  0  0
   -5.5085   -0.0924    4.1161 C   0  0  0  0  0  0  0  0  0  0  0  0
   -4.7557   -0.1118    5.0842 O   0  0  0  0  0  0  0  0  0  0  0  0
   -7.0109   -0.3776    4.2576 C   0  0  0  0  0  0  0  0  0  0  0  0
   -7.3453   -0.8802    5.6631 C   0  0  0  0  0  0  0  0  0  0  0  0
   -7.8766    0.8330    3.8611 C   0  0  0  0  0  0  0  0  0  0  0  0
   -7.6498    2.0795    4.7058 C   0  0  0  0  0  0  0  0  0  0  0  0
    3.8982   -3.1063    2.3333 H   0  0  0  0  0  0  0  0  0  0  0  0
    1.0360   -2.3979    0.7157 H   0  0  0  0  0  0  0  0  0  0  0  0
    0.2361   -1.8469    2.2083 H   0  0  0  0  0  0  0  0  0  0  0  0
   -0.3991   -1.3983    0.6122 H   0  0  0  0  0  0  0  0  0  0  0  0
    1.3960    3.6242    1.0950 H   0  0  0  0  0  0  0  0  0  0  0  0
    3.1500    3.4854    1.2626 H   0  0  0  0  0  0  0  0  0  0  0  0
    2.5661    4.4558   -0.9619 H   0  0  0  0  0  0  0  0  0  0  0  0
    3.3339    2.8714   -1.1761 H   0  0  0  0  0  0  0  0  0  0  0  0
    1.5807    3.0328   -1.3452 H   0  0  0  0  0  0  0  0  0  0  0  0
   -4.2292    1.3086   -2.5697 H   0  0  0  0  0  0  0  0  0  0  0  0
   -5.3116   -2.1613   -3.0839 H   0  0  0  0  0  0  0  0  0  0  0  0
   -5.7196   -1.1029   -1.7198 H   0  0  0  0  0  0  0  0  0  0  0  0
   -5.7169   -0.4598   -3.3649 H   0  0  0  0  0  0  0  0  0  0  0  0
   -3.1767   -2.7910   -1.9415 H   0  0  0  0  0  0  0  0  0  0  0  0
   -3.5208   -1.7280   -0.5756 H   0  0  0  0  0  0  0  0  0  0  0  0
   -1.9891   -1.5936   -1.4487 H   0  0  0  0  0  0  0  0  0  0  0  0
   -1.9819   -0.5892   -3.8628 H   0  0  0  0  0  0  0  0  0  0  0  0
   -3.5060   -0.0904   -4.5954 H   0  0  0  0  0  0  0  0  0  0  0  0
   -3.1525   -1.8099   -4.3619 H   0  0  0  0  0  0  0  0  0  0  0  0
   -0.6185    1.0425    3.2297 H   0  0  0  0  0  0  0  0  0  0  0  0
   -2.7598    0.4358    4.2011 H   0  0  0  0  0  0  0  0  0  0  0  0
   -4.6090    0.6854    0.3107 H   0  0  0  0  0  0  0  0  0  0  0  0
   -5.8716    0.1119    2.1109 H   0  0  0  0  0  0  0  0  0  0  0  0
   -7.2413   -1.1962    3.5624 H   0  0  0  0  0  0  0  0  0  0  0  0
   -6.7921   -1.7989    5.8853 H   0  0  0  0  0  0  0  0  0  0  0  0
   -7.0793   -0.1499    6.4332 H   0  0  0  0  0  0  0  0  0  0  0  0
   -8.4130   -1.1032    5.7543 H   0  0  0  0  0  0  0  0  0  0  0  0
   -7.6987    1.0931    2.8117 H   0  0  0  0  0  0  0  0  0  0  0  0
   -8.9353    0.5540    3.9287 H   0  0  0  0  0  0  0  0  0  0  0  0
   -7.9117    1.9092    5.7531 H   0  0  0  0  0  0  0  0  0  0  0  0
   -6.6089    2.4128    4.6575 H   0  0  0  0  0  0  0  0  0  0  0  0
   -8.2785    2.8977    4.3385 H   0  0  0  0  0  0  0  0  0  0  0  0
  1  2  2  0
  2  3  1  0
  2  4  1  0
  4  5  1  0
  5  6  1  0
  5  7  2  0
  7  8  1  0
  8  9  1  0
  8 10  1  0
 10 11  1  0
  7 12  1  0
 12 13  1  0
 13 14  2  0
 14 15  1  0
 15 16  2  0
 15 17  2  0
 15 18  1  0
 18 19  1  0
 19 20  1  0
 19 21  1  0
 19 22  1  0
 13 23  1  0
 23 24  2  0
 24 25  1  0
 25 26  2  0
 25 27  1  0
 27 28  1  0
 28 29  2  0
 28 30  1  0
 30 31  1  0
 30 32  1  0
 32 33  1  0
  9  4  2  0
 26 14  1  0
  3 34  1  0
  6 35  1  0
  6 36  1  0
  6 37  1  0
 10 38  1  0
 10 39  1  0
 11 40  1  0
 11 41  1  0
 11 42  1  0
 18 43  1  0
 20 44  1  0
 20 45  1  0
 20 46  1  0
 21 47  1  0
 21 48  1  0
 21 49  1  0
 22 50  1  0
 22 51  1  0
 22 52  1  0
 23 53  1  0
 24 54  1  0
 26 55  1  0
 27 56  1  0
 30 57  1  0
 31 58  1  0
 31 59  1  0
 31 60  1  0
 32 61  1  0
 32 62  1  0
 33 63  1  0
 33 64  1  0
 33 65  1  0
M  END
>  <mol_id>  (35) 
V027-7822

>  <drugclip_rank>  (35) 
35

>  <conformer>  (35) 
26

>  <align_rmsd>  (35) 
0.548

$$$$
V027-2568
     RDKit          3D

 71 72  0  0  0  0  0  0  0  0999 V2000
    1.6749    3.2763    2.6419 C   0  0  0  0  0  0  0  0  0  0  0  0
    2.2340    2.7733    1.2975 C   0  0  0  0  0  0  0  0  0  0  0  0
    3.7504    3.0832    1.2518 C   0  0  0  0  0  0  0  0  0  0  0  0
    1.5839    3.5608    0.1389 C   0  0  0  0  0  0  0  0  0  0  0  0
    1.9859    1.3175    1.1972 N   0  0  0  0  0  0  0  0  0  0  0  0
    2.9438    0.4587    1.6064 N   0  0  0  0  0  0  0  0  0  0  0  0
    2.4220   -0.7666    1.4199 C   0  0  0  0  0  0  0  0  0  0  0  0
    3.1929   -1.9928    1.6730 C   0  0  0  0  0  0  0  0  0  0  0  0
    2.8137   -3.1340    1.4316 O   0  0  0  0  0  0  0  0  0  0  0  0
    4.4182   -1.8065    2.2279 O   0  0  0  0  0  0  0  0  0  0  0  0
    1.0694   -0.6786    0.9653 C   0  0  0  0  0  0  0  0  0  0  0  0
    0.1722   -1.8100    0.6248 C   0  0  0  0  0  0  0  0  0  0  0  0
    0.8062    0.6771    0.8894 C   0  0  0  0  0  0  0  0  0  0  0  0
   -0.2822    1.3646    0.5409 O   0  0  0  0  0  0  0  0  0  0  0  0
   -1.5064    1.0963    1.1025 C   0  0  0  0  0  0  0  0  0  0  0  0
   -2.6548    1.1879    0.3130 C   0  0  0  0  0  0  0  0  0  0  0  0
   -2.4912    1.4933   -1.4225 S   0  0  0  0  0  0  0  0  0  0  0  0
   -2.4652    2.9297   -1.5953 O   0  0  0  0  0  0  0  0  0  0  0  0
   -1.4597    0.6296   -1.9545 O   0  0  0  0  0  0  0  0  0  0  0  0
   -3.9472    0.9784   -2.0838 N   0  0  0  0  0  0  0  0  0  0  0  0
   -4.1295   -0.4298   -2.4570 C   0  0  0  0  0  0  0  0  0  0  0  0
   -3.7744   -0.6131   -3.9265 C   0  0  0  0  0  0  0  0  0  0  0  0
   -5.5833   -0.8159   -2.2057 C   0  0  0  0  0  0  0  0  0  0  0  0
   -1.6357    0.8638    2.4758 C   0  0  0  0  0  0  0  0  0  0  0  0
   -2.9007    0.7277    3.0472 C   0  0  0  0  0  0  0  0  0  0  0  0
   -4.0560    0.8351    2.2615 C   0  0  0  0  0  0  0  0  0  0  0  0
   -3.9265    1.0556    0.8892 C   0  0  0  0  0  0  0  0  0  0  0  0
   -5.2913    0.7719    2.9336 N   0  0  0  0  0  0  0  0  0  0  0  0
   -6.5591    0.8127    2.3795 C   0  0  0  0  0  0  0  0  0  0  0  0
   -6.8359    0.7382    1.1869 O   0  0  0  0  0  0  0  0  0  0  0  0
   -7.6514    0.9928    3.4271 C   0  0  0  0  0  0  0  0  0  0  0  0
   -8.0219    2.4709    3.7088 C   0  0  0  0  0  0  0  0  0  0  0  0
   -9.0586    2.4942    4.8483 C   0  0  0  0  0  0  0  0  0  0  0  0
   -8.6484    3.1250    2.4640 C   0  0  0  0  0  0  0  0  0  0  0  0
   -6.8001    3.2922    4.1530 C   0  0  0  0  0  0  0  0  0  0  0  0
    1.8039    4.3605    2.7577 H   0  0  0  0  0  0  0  0  0  0  0  0
    0.6043    3.0583    2.7408 H   0  0  0  0  0  0  0  0  0  0  0  0
    2.1780    2.7899    3.4854 H   0  0  0  0  0  0  0  0  0  0  0  0
    3.9345    4.1630    1.3391 H   0  0  0  0  0  0  0  0  0  0  0  0
    4.1974    2.7336    0.3142 H   0  0  0  0  0  0  0  0  0  0  0  0
    4.2943    2.6078    2.0767 H   0  0  0  0  0  0  0  0  0  0  0  0
    1.8189    3.1110   -0.8336 H   0  0  0  0  0  0  0  0  0  0  0  0
    1.9432    4.5966    0.1190 H   0  0  0  0  0  0  0  0  0  0  0  0
    0.4959    3.6200    0.2364 H   0  0  0  0  0  0  0  0  0  0  0  0
    4.7762   -2.7121    2.3020 H   0  0  0  0  0  0  0  0  0  0  0  0
    0.6141   -2.4268   -0.1630 H   0  0  0  0  0  0  0  0  0  0  0  0
    0.0012   -2.4399    1.5042 H   0  0  0  0  0  0  0  0  0  0  0  0
   -0.8044   -1.4737    0.2639 H   0  0  0  0  0  0  0  0  0  0  0  0
   -4.4427    1.7010   -2.6011 H   0  0  0  0  0  0  0  0  0  0  0  0
   -3.4917   -1.0736   -1.8401 H   0  0  0  0  0  0  0  0  0  0  0  0
   -4.3998    0.0132   -4.5725 H   0  0  0  0  0  0  0  0  0  0  0  0
   -3.9121   -1.6547   -4.2314 H   0  0  0  0  0  0  0  0  0  0  0  0
   -2.7320   -0.3438   -4.1232 H   0  0  0  0  0  0  0  0  0  0  0  0
   -6.2719   -0.1914   -2.7879 H   0  0  0  0  0  0  0  0  0  0  0  0
   -5.7589   -1.8604   -2.4825 H   0  0  0  0  0  0  0  0  0  0  0  0
   -5.8389   -0.7011   -1.1481 H   0  0  0  0  0  0  0  0  0  0  0  0
   -0.7577    0.8236    3.1167 H   0  0  0  0  0  0  0  0  0  0  0  0
   -2.9699    0.5691    4.1222 H   0  0  0  0  0  0  0  0  0  0  0  0
   -4.8038    1.1686    0.2604 H   0  0  0  0  0  0  0  0  0  0  0  0
   -5.2371    0.6864    3.9424 H   0  0  0  0  0  0  0  0  0  0  0  0
   -8.5326    0.4301    3.0863 H   0  0  0  0  0  0  0  0  0  0  0  0
   -7.3330    0.5051    4.3600 H   0  0  0  0  0  0  0  0  0  0  0  0
   -9.9454    1.9020    4.5950 H   0  0  0  0  0  0  0  0  0  0  0  0
   -8.6335    2.0888    5.7754 H   0  0  0  0  0  0  0  0  0  0  0  0
   -9.3937    3.5161    5.0611 H   0  0  0  0  0  0  0  0  0  0  0  0
   -8.9422    4.1584    2.6797 H   0  0  0  0  0  0  0  0  0  0  0  0
   -7.9496    3.1574    1.6198 H   0  0  0  0  0  0  0  0  0  0  0  0
   -9.5420    2.5816    2.1400 H   0  0  0  0  0  0  0  0  0  0  0  0
   -7.0955    4.2831    4.5081 H   0  0  0  0  0  0  0  0  0  0  0  0
   -6.2644    2.7977    4.9703 H   0  0  0  0  0  0  0  0  0  0  0  0
   -6.0897    3.4401    3.3321 H   0  0  0  0  0  0  0  0  0  0  0  0
  1  2  1  0
  2  3  1  0
  2  4  1  0
  2  5  1  0
  5  6  1  0
  6  7  2  0
  7  8  1  0
  8  9  2  0
  8 10  1  0
  7 11  1  0
 11 12  1  0
 11 13  2  0
 13 14  1  0
 14 15  1  0
 15 16  2  0
 16 17  1  0
 17 18  2  0
 17 19  2  0
 17 20  1  0
 20 21  1  0
 21 22  1  0
 21 23  1  0
 15 24  1  0
 24 25  2  0
 25 26  1  0
 26 27  2  0
 26 28  1  0
 28 29  1  0
 29 30  2  0
 29 31  1  0
 31 32  1  0
 32 33  1  0
 32 34  1  0
 32 35  1  0
 13  5  1  0
 27 16  1  0
  1 36  1  0
  1 37  1  0
  1 38  1  0
  3 39  1  0
  3 40  1  0
  3 41  1  0
  4 42  1  0
  4 43  1  0
  4 44  1  0
 10 45  1  0
 12 46  1  0
 12 47  1  0
 12 48  1  0
 20 49  1  0
 21 50  1  0
 22 51  1  0
 22 52  1  0
 22 53  1  0
 23 54  1  0
 23 55  1  0
 23 56  1  0
 24 57  1  0
 25 58  1  0
 27 59  1  0
 28 60  1  0
 31 61  1  0
 31 62  1  0
 33 63  1  0
 33 64  1  0
 33 65  1  0
 34 66  1  0
 34 67  1  0
 34 68  1  0
 35 69  1  0
 35 70  1  0
 35 71  1  0
M  END
>  <mol_id>  (36) 
V027-2568

>  <drugclip_rank>  (36) 
36

>  <conformer>  (36) 
27

>  <align_rmsd>  (36) 
0.345

$$$$
V029-9694
     RDKit          3D

 65 66  0  0  0  0  0  0  0  0999 V2000
    2.5035   -3.1383    2.0214 O   0  0  0  0  0  0  0  0  0  0  0  0
    3.0009   -2.0222    1.9324 C   0  0  0  0  0  0  0  0  0  0  0  0
    4.3255   -1.8698    2.1810 O   0  0  0  0  0  0  0  0  0  0  0  0
    2.2788   -0.7947    1.5696 C   0  0  0  0  0  0  0  0  0  0  0  0
    0.8789   -0.6729    1.2710 C   0  0  0  0  0  0  0  0  0  0  0  0
   -0.1095   -1.7815    1.2378 C   0  0  0  0  0  0  0  0  0  0  0  0
    0.6816    0.6769    1.0262 C   0  0  0  0  0  0  0  0  0  0  0  0
    1.9252    1.2449    1.0946 N   0  0  0  0  0  0  0  0  0  0  0  0
    2.8957    0.3980    1.4681 N   0  0  0  0  0  0  0  0  0  0  0  0
    2.2438    2.6315    0.8476 C   0  0  0  0  0  0  0  0  0  0  0  0
   -0.3725    1.4371    0.7164 O   0  0  0  0  0  0  0  0  0  0  0  0
   -1.6272    1.1536    1.1886 C   0  0  0  0  0  0  0  0  0  0  0  0
   -2.7198    1.1821    0.3243 C   0  0  0  0  0  0  0  0  0  0  0  0
   -2.4645    1.4683   -1.4018 S   0  0  0  0  0  0  0  0  0  0  0  0
   -2.5685    2.8984   -1.5952 O   0  0  0  0  0  0  0  0  0  0  0  0
   -1.3240    0.7120   -1.8619 O   0  0  0  0  0  0  0  0  0  0  0  0
   -3.8411    0.8368   -2.1458 N   0  0  0  0  0  0  0  0  0  0  0  0
   -3.9560   -0.5575   -2.6420 C   0  0  0  0  0  0  0  0  0  0  0  0
   -5.4550   -0.7858   -2.9187 C   0  0  0  0  0  0  0  0  0  0  0  0
   -3.4960   -1.5951   -1.6152 C   0  0  0  0  0  0  0  0  0  0  0  0
   -3.1895   -0.7065   -3.9611 C   0  0  0  0  0  0  0  0  0  0  0  0
   -1.8431    0.9462    2.5535 C   0  0  0  0  0  0  0  0  0  0  0  0
   -3.1376    0.7390    3.0437 C   0  0  0  0  0  0  0  0  0  0  0  0
   -4.2352    0.7629    2.1824 C   0  0  0  0  0  0  0  0  0  0  0  0
   -4.0193    0.9920    0.8183 C   0  0  0  0  0  0  0  0  0  0  0  0
   -5.5686    0.5616    2.5954 N   0  0  0  0  0  0  0  0  0  0  0  0
   -6.0377    0.3872    3.8895 C   0  0  0  0  0  0  0  0  0  0  0  0
   -5.3572    0.4465    4.9067 O   0  0  0  0  0  0  0  0  0  0  0  0
   -7.5523    0.1141    3.9311 C   0  0  0  0  0  0  0  0  0  0  0  0
   -8.1233    0.2759    5.3559 C   0  0  0  0  0  0  0  0  0  0  0  0
   -7.8248   -0.8656    6.3201 C   0  0  0  0  0  0  0  0  0  0  0  0
   -7.8723   -1.2405    3.2693 C   0  0  0  0  0  0  0  0  0  0  0  0
   -9.3638   -1.4999    3.1111 C   0  0  0  0  0  0  0  0  0  0  0  0
    4.6231   -2.7759    2.3870 H   0  0  0  0  0  0  0  0  0  0  0  0
   -1.0331   -1.4945    0.7301 H   0  0  0  0  0  0  0  0  0  0  0  0
    0.2903   -2.6416    0.6924 H   0  0  0  0  0  0  0  0  0  0  0  0
   -0.3594   -2.0997    2.2543 H   0  0  0  0  0  0  0  0  0  0  0  0
    1.8309    2.9180   -0.1224 H   0  0  0  0  0  0  0  0  0  0  0  0
    3.3288    2.7609    0.8368 H   0  0  0  0  0  0  0  0  0  0  0  0
    1.8019    3.2317    1.6471 H   0  0  0  0  0  0  0  0  0  0  0  0
   -4.2723    1.5567   -2.7294 H   0  0  0  0  0  0  0  0  0  0  0  0
   -5.8335   -0.0764   -3.6643 H   0  0  0  0  0  0  0  0  0  0  0  0
   -6.0507   -0.6477   -2.0084 H   0  0  0  0  0  0  0  0  0  0  0  0
   -5.6433   -1.7975   -3.2944 H   0  0  0  0  0  0  0  0  0  0  0  0
   -2.4300   -1.5156   -1.3886 H   0  0  0  0  0  0  0  0  0  0  0  0
   -3.6643   -2.6122   -1.9870 H   0  0  0  0  0  0  0  0  0  0  0  0
   -4.0461   -1.4993   -0.6731 H   0  0  0  0  0  0  0  0  0  0  0  0
   -3.4834    0.0668   -4.6808 H   0  0  0  0  0  0  0  0  0  0  0  0
   -2.1074   -0.6273   -3.8218 H   0  0  0  0  0  0  0  0  0  0  0  0
   -3.3845   -1.6824   -4.4217 H   0  0  0  0  0  0  0  0  0  0  0  0
   -1.0093    0.9552    3.2520 H   0  0  0  0  0  0  0  0  0  0  0  0
   -3.2500    0.5715    4.1109 H   0  0  0  0  0  0  0  0  0  0  0  0
   -4.8634    1.0327    0.1359 H   0  0  0  0  0  0  0  0  0  0  0  0
   -6.2685    0.5891    1.8646 H   0  0  0  0  0  0  0  0  0  0  0  0
   -8.0120    0.9095    3.3256 H   0  0  0  0  0  0  0  0  0  0  0  0
   -7.7437    1.2083    5.7925 H   0  0  0  0  0  0  0  0  0  0  0  0
   -9.2113    0.3953    5.2936 H   0  0  0  0  0  0  0  0  0  0  0  0
   -8.3045   -1.7959    6.0057 H   0  0  0  0  0  0  0  0  0  0  0  0
   -6.7512   -1.0504    6.4139 H   0  0  0  0  0  0  0  0  0  0  0  0
   -8.2081   -0.6208    7.3165 H   0  0  0  0  0  0  0  0  0  0  0  0
   -7.4219   -1.2857    2.2699 H   0  0  0  0  0  0  0  0  0  0  0  0
   -7.4121   -2.0608    3.8339 H   0  0  0  0  0  0  0  0  0  0  0  0
   -9.5226   -2.4496    2.5900 H   0  0  0  0  0  0  0  0  0  0  0  0
   -9.8377   -0.7102    2.5211 H   0  0  0  0  0  0  0  0  0  0  0  0
   -9.8712   -1.5636    4.0774 H   0  0  0  0  0  0  0  0  0  0  0  0
  1  2  2  0
  2  3  1  0
  2  4  1  0
  4  5  1  0
  5  6  1  0
  5  7  2  0
  7  8  1  0
  8  9  1  0
  8 10  1  0
  7 11  1  0
 11 12  1  0
 12 13  2  0
 13 14  1  0
 14 15  2  0
 14 16  2  0
 14 17  1  0
 17 18  1  0
 18 19  1  0
 18 20  1  0
 18 21  1  0
 12 22  1  0
 22 23  2  0
 23 24  1  0
 24 25  2  0
 24 26  1  0
 26 27  1  0
 27 28  2  0
 27 29  1  0
 29 30  1  0
 30 31  1  0
 29 32  1  0
 32 33  1  0
  9  4  2  0
 25 13  1  0
  3 34  1  0
  6 35  1  0
  6 36  1  0
  6 37  1  0
 10 38  1  0
 10 39  1  0
 10 40  1  0
 17 41  1  0
 19 42  1  0
 19 43  1  0
 19 44  1  0
 20 45  1  0
 20 46  1  0
 20 47  1  0
 21 48  1  0
 21 49  1  0
 21 50  1  0
 22 51  1  0
 23 52  1  0
 25 53  1  0
 26 54  1  0
 29 55  1  0
 30 56  1  0
 30 57  1  0
 31 58  1  0
 31 59  1  0
 31 60  1  0
 32 61  1  0
 32 62  1  0
 33 63  1  0
 33 64  1  0
 33 65  1  0
M  END
>  <mol_id>  (37) 
V029-9694

>  <drugclip_rank>  (37) 
37

>  <conformer>  (37) 
14

>  <align_rmsd>  (37) 
0.333

$$$$
Z223223430
     RDKit          3D

 60 62  0  0  0  0  0  0  0  0999 V2000
    2.7101   -0.2190   -4.4408 C   0  0  0  0  0  0  0  0  0  0  0  0
    1.5053   -0.5052   -3.7319 O   0  0  0  0  0  0  0  0  0  0  0  0
    1.5066   -0.0299   -2.4456 C   0  0  0  0  0  0  0  0  0  0  0  0
    2.5375   -0.4134   -1.5710 C   0  0  0  0  0  0  0  0  0  0  0  0
    2.5336   -0.0131   -0.2313 C   0  0  0  0  0  0  0  0  0  0  0  0
    3.5757   -0.4239    0.7199 C   0  0  0  0  0  0  0  0  0  0  0  0
    4.8712   -0.5736    0.4002 C   0  0  0  0  0  0  0  0  0  0  0  0
    5.8280   -0.9921    1.4334 C   0  0  0  0  0  0  0  0  0  0  0  0
    5.5949   -1.2644    2.5932 O   0  0  0  0  0  0  0  0  0  0  0  0
    7.0647   -1.0497    0.9198 O   0  0  0  0  0  0  0  0  0  0  0  0
    1.4528    0.7353    0.2360 C   0  0  0  0  0  0  0  0  0  0  0  0
    0.3974    1.0902   -0.6246 C   0  0  0  0  0  0  0  0  0  0  0  0
    0.4193    0.7298   -1.9804 C   0  0  0  0  0  0  0  0  0  0  0  0
   -0.6646    1.0771   -2.7376 O   0  0  0  0  0  0  0  0  0  0  0  0
   -0.4418    1.3834   -4.1031 C   0  0  0  0  0  0  0  0  0  0  0  0
   -0.9382    2.0294    0.0815 S   0  0  0  0  0  0  0  0  0  0  0  0
   -0.4543    2.6065    1.3196 O   0  0  0  0  0  0  0  0  0  0  0  0
   -1.5750    2.8647   -0.9145 O   0  0  0  0  0  0  0  0  0  0  0  0
   -2.0024    0.8267    0.5411 N   0  0  0  0  0  0  0  0  0  0  0  0
   -2.9989    0.3405   -0.4242 C   0  0  0  0  0  0  0  0  0  0  0  0
   -3.1495   -1.1784   -0.2153 C   0  0  0  0  0  0  0  0  0  0  0  0
   -3.7446   -1.9865   -1.3918 C   0  0  0  0  0  0  0  0  0  0  0  0
   -5.1742   -1.5894   -1.7480 C   0  0  0  0  0  0  0  0  0  0  0  0
   -2.8539   -1.9427   -2.6362 C   0  0  0  0  0  0  0  0  0  0  0  0
   -4.2567    1.1121   -0.1558 C   0  0  0  0  0  0  0  0  0  0  0  0
   -5.2659    0.7754    0.6224 N   0  0  0  0  0  0  0  0  0  0  0  0
   -4.4494    2.3683   -0.6899 N   0  0  0  0  0  0  0  0  0  0  0  0
   -5.6507    2.8488   -0.2385 C   0  0  0  0  0  0  0  0  0  0  0  0
   -6.1405    1.8337    0.5754 C   0  0  0  0  0  0  0  0  0  0  0  0
   -6.3221    4.0551   -0.4452 C   0  0  0  0  0  0  0  0  0  0  0  0
   -7.5545    4.2094    0.2050 C   0  0  0  0  0  0  0  0  0  0  0  0
   -8.0773    3.2015    1.0171 C   0  0  0  0  0  0  0  0  0  0  0  0
   -7.3769    2.0046    1.2164 C   0  0  0  0  0  0  0  0  0  0  0  0
    3.4855   -0.9528   -4.2096 H   0  0  0  0  0  0  0  0  0  0  0  0
    2.4949   -0.2887   -5.5072 H   0  0  0  0  0  0  0  0  0  0  0  0
    3.0671    0.7935   -4.2360 H   0  0  0  0  0  0  0  0  0  0  0  0
    3.3229   -1.0712   -1.9305 H   0  0  0  0  0  0  0  0  0  0  0  0
    3.2429   -0.5977    1.7456 H   0  0  0  0  0  0  0  0  0  0  0  0
    5.2675   -0.3916   -0.5933 H   0  0  0  0  0  0  0  0  0  0  0  0
    7.6181   -1.3333    1.6780 H   0  0  0  0  0  0  0  0  0  0  0  0
    1.4217    1.0365    1.2826 H   0  0  0  0  0  0  0  0  0  0  0  0
    0.4875    1.9355   -4.2493 H   0  0  0  0  0  0  0  0  0  0  0  0
   -1.2680    2.0229   -4.4334 H   0  0  0  0  0  0  0  0  0  0  0  0
   -0.4723    0.4781   -4.7057 H   0  0  0  0  0  0  0  0  0  0  0  0
   -2.3029    0.8755    1.5163 H   0  0  0  0  0  0  0  0  0  0  0  0
   -2.6664    0.5259   -1.4459 H   0  0  0  0  0  0  0  0  0  0  0  0
   -3.7381   -1.3830    0.6897 H   0  0  0  0  0  0  0  0  0  0  0  0
   -2.1548   -1.6028   -0.0123 H   0  0  0  0  0  0  0  0  0  0  0  0
   -3.7755   -3.0327   -1.0596 H   0  0  0  0  0  0  0  0  0  0  0  0
   -5.5930   -2.2884   -2.4802 H   0  0  0  0  0  0  0  0  0  0  0  0
   -5.2219   -0.5894   -2.1889 H   0  0  0  0  0  0  0  0  0  0  0  0
   -5.8189   -1.6132   -0.8648 H   0  0  0  0  0  0  0  0  0  0  0  0
   -1.8158   -2.1872   -2.3824 H   0  0  0  0  0  0  0  0  0  0  0  0
   -2.8663   -0.9592   -3.1163 H   0  0  0  0  0  0  0  0  0  0  0  0
   -3.1962   -2.6739   -3.3750 H   0  0  0  0  0  0  0  0  0  0  0  0
   -3.7661    2.8722   -1.2419 H   0  0  0  0  0  0  0  0  0  0  0  0
   -5.9129    4.8397   -1.0703 H   0  0  0  0  0  0  0  0  0  0  0  0
   -8.1114    5.1346    0.0759 H   0  0  0  0  0  0  0  0  0  0  0  0
   -9.0358    3.3481    1.5114 H   0  0  0  0  0  0  0  0  0  0  0  0
   -7.7700    1.2213    1.8549 H   0  0  0  0  0  0  0  0  0  0  0  0
  1  2  1  0
  2  3  1  0
  3  4  2  0
  4  5  1  0
  5  6  1  0
  6  7  2  0
  7  8  1  0
  8  9  2  0
  8 10  1  0
  5 11  2  0
 11 12  1  0
 12 13  2  0
 13 14  1  0
 14 15  1  0
 12 16  1  0
 16 17  2  0
 16 18  2  0
 16 19  1  0
 19 20  1  0
 20 21  1  0
 21 22  1  0
 22 23  1  0
 22 24  1  0
 20 25  1  0
 25 26  2  0
 25 27  1  0
 27 28  1  0
 28 29  2  0
 28 30  1  0
 30 31  2  0
 31 32  1  0
 32 33  2  0
 13  3  1  0
 29 26  1  0
 33 29  1  0
  1 34  1  0
  1 35  1  0
  1 36  1  0
  4 37  1  0
  6 38  1  0
  7 39  1  0
 10 40  1  0
 11 41  1  0
 15 42  1  0
 15 43  1  0
 15 44  1  0
 19 45  1  0
 20 46  1  0
 21 47  1  0
 21 48  1  0
 22 49  1  0
 23 50  1  0
 23 51  1  0
 23 52  1  0
 24 53  1  0
 24 54  1  0
 24 55  1  0
 27 56  1  0
 30 57  1  0
 31 58  1  0
 32 59  1  0
 33 60  1  0
M  END
>  <mol_id>  (38) 
Z223223430

>  <drugclip_rank>  (38) 
38

>  <conformer>  (38) 
20

>  <align_rmsd>  (38) 
1.034

$$$$
V004-9878
     RDKit          3D

 65 66  0  0  0  0  0  0  0  0999 V2000
    4.8551   -1.5273    2.0540 O   0  0  0  0  0  0  0  0  0  0  0  0
    3.6404   -1.5388    1.8955 C   0  0  0  0  0  0  0  0  0  0  0  0
    2.9733   -2.6948    2.1406 O   0  0  0  0  0  0  0  0  0  0  0  0
    2.7989   -0.4089    1.4742 C   0  0  0  0  0  0  0  0  0  0  0  0
    1.3876   -0.3838    1.1993 C   0  0  0  0  0  0  0  0  0  0  0  0
    0.4481   -1.5340    1.2144 C   0  0  0  0  0  0  0  0  0  0  0  0
    1.1039    0.9432    0.9112 C   0  0  0  0  0  0  0  0  0  0  0  0
    2.3128    1.5842    0.9081 N   0  0  0  0  0  0  0  0  0  0  0  0
    3.3383    0.8119    1.2967 N   0  0  0  0  0  0  0  0  0  0  0  0
    2.5561    2.9765    0.5786 C   0  0  0  0  0  0  0  0  0  0  0  0
    2.4014    3.8863    1.7842 C   0  0  0  0  0  0  0  0  0  0  0  0
   -0.0076    1.6245    0.6190 O   0  0  0  0  0  0  0  0  0  0  0  0
   -1.2099    1.3159    1.1992 C   0  0  0  0  0  0  0  0  0  0  0  0
   -2.3706    1.2760    0.4307 C   0  0  0  0  0  0  0  0  0  0  0  0
   -2.3169    1.5084   -1.3224 S   0  0  0  0  0  0  0  0  0  0  0  0
   -1.0334    1.1100   -1.8521 O   0  0  0  0  0  0  0  0  0  0  0  0
   -2.8934    2.8073   -1.5911 O   0  0  0  0  0  0  0  0  0  0  0  0
   -3.4432    0.3872   -1.8851 N   0  0  0  0  0  0  0  0  0  0  0  0
   -3.0536   -1.0222   -2.0319 C   0  0  0  0  0  0  0  0  0  0  0  0
   -4.2595   -1.8842   -1.6705 C   0  0  0  0  0  0  0  0  0  0  0  0
   -2.6140   -1.2860   -3.4669 C   0  0  0  0  0  0  0  0  0  0  0  0
   -1.3073    1.1379    2.5826 C   0  0  0  0  0  0  0  0  0  0  0  0
   -2.5457    0.8840    3.1837 C   0  0  0  0  0  0  0  0  0  0  0  0
   -3.7099    0.8307    2.4169 C   0  0  0  0  0  0  0  0  0  0  0  0
   -3.6161    1.0375    1.0363 C   0  0  0  0  0  0  0  0  0  0  0  0
   -4.9947    0.5883    2.9456 N   0  0  0  0  0  0  0  0  0  0  0  0
   -5.3324    0.3392    4.2702 C   0  0  0  0  0  0  0  0  0  0  0  0
   -4.5499    0.2719    5.2080 O   0  0  0  0  0  0  0  0  0  0  0  0
   -6.8401    0.1365    4.4199 C   0  0  0  0  0  0  0  0  0  0  0  0
   -7.3993   -0.0786    5.8476 C   0  0  0  0  0  0  0  0  0  0  0  0
   -6.8339   -1.3553    6.4930 C   0  0  0  0  0  0  0  0  0  0  0  0
   -7.1197    1.1357    6.7489 C   0  0  0  0  0  0  0  0  0  0  0  0
   -8.9302   -0.2437    5.7312 C   0  0  0  0  0  0  0  0  0  0  0  0
    3.7016   -3.2899    2.4140 H   0  0  0  0  0  0  0  0  0  0  0  0
    0.1843   -1.8019    2.2415 H   0  0  0  0  0  0  0  0  0  0  0  0
    0.8896   -2.4073    0.7240 H   0  0  0  0  0  0  0  0  0  0  0  0
   -0.4720   -1.3118    0.6677 H   0  0  0  0  0  0  0  0  0  0  0  0
    3.5699    3.0497    0.1692 H   0  0  0  0  0  0  0  0  0  0  0  0
    1.8585    3.2615   -0.2161 H   0  0  0  0  0  0  0  0  0  0  0  0
    2.5881    4.9268    1.5016 H   0  0  0  0  0  0  0  0  0  0  0  0
    1.3912    3.8220    2.2028 H   0  0  0  0  0  0  0  0  0  0  0  0
    3.1083    3.6148    2.5754 H   0  0  0  0  0  0  0  0  0  0  0  0
   -4.1012    0.7890   -2.5525 H   0  0  0  0  0  0  0  0  0  0  0  0
   -2.2400   -1.2695   -1.3411 H   0  0  0  0  0  0  0  0  0  0  0  0
   -4.5847   -1.6877   -0.6429 H   0  0  0  0  0  0  0  0  0  0  0  0
   -4.0151   -2.9485   -1.7492 H   0  0  0  0  0  0  0  0  0  0  0  0
   -5.1101   -1.6796   -2.3311 H   0  0  0  0  0  0  0  0  0  0  0  0
   -3.4111   -1.0446   -4.1793 H   0  0  0  0  0  0  0  0  0  0  0  0
   -1.7425   -0.6801   -3.7336 H   0  0  0  0  0  0  0  0  0  0  0  0
   -2.3445   -2.3386   -3.6033 H   0  0  0  0  0  0  0  0  0  0  0  0
   -0.4226    1.2038    3.2120 H   0  0  0  0  0  0  0  0  0  0  0  0
   -2.5622    0.7483    4.2611 H   0  0  0  0  0  0  0  0  0  0  0  0
   -4.5114    1.0220    0.4192 H   0  0  0  0  0  0  0  0  0  0  0  0
   -5.7595    0.5984    2.2819 H   0  0  0  0  0  0  0  0  0  0  0  0
   -7.1072   -0.7277    3.7965 H   0  0  0  0  0  0  0  0  0  0  0  0
   -7.3274    1.0156    3.9763 H   0  0  0  0  0  0  0  0  0  0  0  0
   -5.7618   -1.2784    6.6942 H   0  0  0  0  0  0  0  0  0  0  0  0
   -7.3246   -1.5604    7.4517 H   0  0  0  0  0  0  0  0  0  0  0  0
   -6.9922   -2.2266    5.8476 H   0  0  0  0  0  0  0  0  0  0  0  0
   -6.0512    1.2700    6.9412 H   0  0  0  0  0  0  0  0  0  0  0  0
   -7.4960    2.0588    6.2935 H   0  0  0  0  0  0  0  0  0  0  0  0
   -7.6095    1.0226    7.7229 H   0  0  0  0  0  0  0  0  0  0  0  0
   -9.1882   -1.1054    5.1050 H   0  0  0  0  0  0  0  0  0  0  0  0
   -9.3924    0.6440    5.2846 H   0  0  0  0  0  0  0  0  0  0  0  0
   -9.3899   -0.3973    6.7142 H   0  0  0  0  0  0  0  0  0  0  0  0
  1  2  2  0
  2  3  1  0
  2  4  1  0
  4  5  1  0
  5  6  1  0
  5  7  2  0
  7  8  1  0
  8  9  1  0
  8 10  1  0
 10 11  1  0
  7 12  1  0
 12 13  1  0
 13 14  2  0
 14 15  1  0
 15 16  2  0
 15 17  2  0
 15 18  1  0
 18 19  1  0
 19 20  1  0
 19 21  1  0
 13 22  1  0
 22 23  2  0
 23 24  1  0
 24 25  2  0
 24 26  1  0
 26 27  1  0
 27 28  2  0
 27 29  1  0
 29 30  1  0
 30 31  1  0
 30 32  1  0
 30 33  1  0
  9  4  2  0
 25 14  1  0
  3 34  1  0
  6 35  1  0
  6 36  1  0
  6 37  1  0
 10 38  1  0
 10 39  1  0
 11 40  1  0
 11 41  1  0
 11 42  1  0
 18 43  1  0
 19 44  1  0
 20 45  1  0
 20 46  1  0
 20 47  1  0
 21 48  1  0
 21 49  1  0
 21 50  1  0
 22 51  1  0
 23 52  1  0
 25 53  1  0
 26 54  1  0
 29 55  1  0
 29 56  1  0
 31 57  1  0
 31 58  1  0
 31 59  1  0
 32 60  1  0
 32 61  1  0
 32 62  1  0
 33 63  1  0
 33 64  1  0
 33 65  1  0
M  END
>  <mol_id>  (39) 
V004-9878

>  <drugclip_rank>  (39) 
39

>  <conformer>  (39) 
27

>  <align_rmsd>  (39) 
0.845

$$$$
FCG223613171
     RDKit          3D

 60 62  0  0  0  0  0  0  0  0999 V2000
    2.7101   -0.2190   -4.4408 C   0  0  0  0  0  0  0  0  0  0  0  0
    1.5053   -0.5052   -3.7319 O   0  0  0  0  0  0  0  0  0  0  0  0
    1.5066   -0.0299   -2.4456 C   0  0  0  0  0  0  0  0  0  0  0  0
    2.5375   -0.4134   -1.5710 C   0  0  0  0  0  0  0  0  0  0  0  0
    2.5336   -0.0131   -0.2313 C   0  0  0  0  0  0  0  0  0  0  0  0
    3.5757   -0.4239    0.7199 C   0  0  0  0  0  0  0  0  0  0  0  0
    4.8712   -0.5736    0.4002 C   0  0  0  0  0  0  0  0  0  0  0  0
    5.8280   -0.9921    1.4334 C   0  0  0  0  0  0  0  0  0  0  0  0
    5.5949   -1.2644    2.5932 O   0  0  0  0  0  0  0  0  0  0  0  0
    7.0647   -1.0497    0.9198 O   0  0  0  0  0  0  0  0  0  0  0  0
    1.4528    0.7353    0.2360 C   0  0  0  0  0  0  0  0  0  0  0  0
    0.3974    1.0902   -0.6246 C   0  0  0  0  0  0  0  0  0  0  0  0
    0.4193    0.7298   -1.9804 C   0  0  0  0  0  0  0  0  0  0  0  0
   -0.6646    1.0771   -2.7376 O   0  0  0  0  0  0  0  0  0  0  0  0
   -0.4418    1.3834   -4.1031 C   0  0  0  0  0  0  0  0  0  0  0  0
   -0.9382    2.0294    0.0815 S   0  0  0  0  0  0  0  0  0  0  0  0
   -0.4543    2.6065    1.3196 O   0  0  0  0  0  0  0  0  0  0  0  0
   -1.5750    2.8647   -0.9145 O   0  0  0  0  0  0  0  0  0  0  0  0
   -2.0024    0.8267    0.5411 N   0  0  0  0  0  0  0  0  0  0  0  0
   -2.9989    0.3405   -0.4242 C   0  0  0  0  0  0  0  0  0  0  0  0
   -3.1495   -1.1784   -0.2153 C   0  0  0  0  0  0  0  0  0  0  0  0
   -3.7446   -1.9865   -1.3918 C   0  0  0  0  0  0  0  0  0  0  0  0
   -5.1742   -1.5894   -1.7480 C   0  0  0  0  0  0  0  0  0  0  0  0
   -2.8539   -1.9427   -2.6362 C   0  0  0  0  0  0  0  0  0  0  0  0
   -4.2567    1.1121   -0.1558 C   0  0  0  0  0  0  0  0  0  0  0  0
   -5.2659    0.7754    0.6224 N   0  0  0  0  0  0  0  0  0  0  0  0
   -4.4494    2.3683   -0.6899 N   0  0  0  0  0  0  0  0  0  0  0  0
   -5.6507    2.8488   -0.2385 C   0  0  0  0  0  0  0  0  0  0  0  0
   -6.1405    1.8337    0.5754 C   0  0  0  0  0  0  0  0  0  0  0  0
   -6.3221    4.0551   -0.4452 C   0  0  0  0  0  0  0  0  0  0  0  0
   -7.5545    4.2094    0.2050 C   0  0  0  0  0  0  0  0  0  0  0  0
   -8.0773    3.2015    1.0171 C   0  0  0  0  0  0  0  0  0  0  0  0
   -7.3769    2.0046    1.2164 C   0  0  0  0  0  0  0  0  0  0  0  0
    3.4855   -0.9528   -4.2096 H   0  0  0  0  0  0  0  0  0  0  0  0
    2.4949   -0.2887   -5.5072 H   0  0  0  0  0  0  0  0  0  0  0  0
    3.0671    0.7935   -4.2360 H   0  0  0  0  0  0  0  0  0  0  0  0
    3.3229   -1.0712   -1.9305 H   0  0  0  0  0  0  0  0  0  0  0  0
    3.2429   -0.5977    1.7456 H   0  0  0  0  0  0  0  0  0  0  0  0
    5.2675   -0.3916   -0.5933 H   0  0  0  0  0  0  0  0  0  0  0  0
    7.6181   -1.3333    1.6780 H   0  0  0  0  0  0  0  0  0  0  0  0
    1.4217    1.0365    1.2826 H   0  0  0  0  0  0  0  0  0  0  0  0
    0.4875    1.9355   -4.2493 H   0  0  0  0  0  0  0  0  0  0  0  0
   -1.2680    2.0229   -4.4334 H   0  0  0  0  0  0  0  0  0  0  0  0
   -0.4723    0.4781   -4.7057 H   0  0  0  0  0  0  0  0  0  0  0  0
   -2.3029    0.8755    1.5163 H   0  0  0  0  0  0  0  0  0  0  0  0
   -2.6664    0.5259   -1.4459 H   0  0  0  0  0  0  0  0  0  0  0  0
   -3.7381   -1.3830    0.6897 H   0  0  0  0  0  0  0  0  0  0  0  0
   -2.1548   -1.6028   -0.0123 H   0  0  0  0  0  0  0  0  0  0  0  0
   -3.7755   -3.0327   -1.0596 H   0  0  0  0  0  0  0  0  0  0  0  0
   -5.5930   -2.2884   -2.4802 H   0  0  0  0  0  0  0  0  0  0  0  0
   -5.2219   -0.5894   -2.1889 H   0  0  0  0  0  0  0  0  0  0  0  0
   -5.8189   -1.6132   -0.8648 H   0  0  0  0  0  0  0  0  0  0  0  0
   -1.8158   -2.1872   -2.3824 H   0  0  0  0  0  0  0  0  0  0  0  0
   -2.8663   -0.9592   -3.1163 H   0  0  0  0  0  0  0  0  0  0  0  0
   -3.1962   -2.6739   -3.3750 H   0  0  0  0  0  0  0  0  0  0  0  0
   -3.7661    2.8722   -1.2419 H   0  0  0  0  0  0  0  0  0  0  0  0
   -5.9129    4.8397   -1.0703 H   0  0  0  0  0  0  0  0  0  0  0  0
   -8.1114    5.1346    0.0759 H   0  0  0  0  0  0  0  0  0  0  0  0
   -9.0358    3.3481    1.5114 H   0  0  0  0  0  0  0  0  0  0  0  0
   -7.7700    1.2213    1.8549 H   0  0  0  0  0  0  0  0  0  0  0  0
  1  2  1  0
  2  3  1  0
  3  4  2  0
  4  5  1  0
  5  6  1  0
  6  7  2  0
  7  8  1  0
  8  9  2  0
  8 10  1  0
  5 11  2  0
 11 12  1  0
 12 13  2  0
 13 14  1  0
 14 15  1  0
 12 16  1  0
 16 17  2  0
 16 18  2  0
 16 19  1  0
 19 20  1  0
 20 21  1  0
 21 22  1  0
 22 23  1  0
 22 24  1  0
 20 25  1  0
 25 26  2  0
 25 27  1  0
 27 28  1  0
 28 29  2  0
 28 30  1  0
 30 31  2  0
 31 32  1  0
 32 33  2  0
 13  3  1  0
 29 26  1  0
 33 29  1  0
  1 34  1  0
  1 35  1  0
  1 36  1  0
  4 37  1  0
  6 38  1  0
  7 39  1  0
 10 40  1  0
 11 41  1  0
 15 42  1  0
 15 43  1  0
 15 44  1  0
 19 45  1  0
 20 46  1  0
 21 47  1  0
 21 48  1  0
 22 49  1  0
 23 50  1  0
 23 51  1  0
 23 52  1  0
 24 53  1  0
 24 54  1  0
 24 55  1  0
 27 56  1  0
 30 57  1  0
 31 58  1  0
 32 59  1  0
 33 60  1  0
M  END
>  <mol_id>  (40) 
FCG223613171

>  <drugclip_rank>  (40) 
40

>  <conformer>  (40) 
20

>  <align_rmsd>  (40) 
1.034

$$$$
V027-3903
     RDKit          3D

 66 68  0  0  0  0  0  0  0  0999 V2000
   -8.3244    1.0140    3.6083 C   0  0  0  0  0  0  0  0  0  0  0  0
   -7.9044   -0.2400    2.8517 C   0  0  0  0  0  0  0  0  0  0  0  0
   -7.6365   -1.4055    3.8020 C   0  0  0  0  0  0  0  0  0  0  0  0
   -6.7138    0.0493    1.9366 C   0  0  0  0  0  0  0  0  0  0  0  0
   -6.8705    0.0840    0.7198 O   0  0  0  0  0  0  0  0  0  0  0  0
   -5.5214    0.2606    2.6025 N   0  0  0  0  0  0  0  0  0  0  0  0
   -4.2650    0.5702    2.0403 C   0  0  0  0  0  0  0  0  0  0  0  0
   -4.0590    0.8654    0.6890 C   0  0  0  0  0  0  0  0  0  0  0  0
   -3.1735    0.6020    2.9199 C   0  0  0  0  0  0  0  0  0  0  0  0
   -1.8913    0.9097    2.4604 C   0  0  0  0  0  0  0  0  0  0  0  0
   -1.6868    1.1878    1.1082 C   0  0  0  0  0  0  0  0  0  0  0  0
   -2.7734    1.1842    0.2297 C   0  0  0  0  0  0  0  0  0  0  0  0
   -2.4729    1.6129   -1.4591 S   0  0  0  0  0  0  0  0  0  0  0  0
   -1.5348    0.6584   -2.0068 O   0  0  0  0  0  0  0  0  0  0  0  0
   -2.2342    3.0400   -1.4900 O   0  0  0  0  0  0  0  0  0  0  0  0
   -3.9453    1.3945   -2.2512 N   0  0  0  0  0  0  0  0  0  0  0  0
   -4.1351    0.1423   -2.9977 C   0  0  0  0  0  0  0  0  0  0  0  0
   -5.5363    0.0545   -3.6246 C   0  0  0  0  0  0  0  0  0  0  0  0
   -5.7633    1.1227   -4.6972 C   0  0  0  0  0  0  0  0  0  0  0  0
   -6.6466    0.0980   -2.5765 C   0  0  0  0  0  0  0  0  0  0  0  0
   -0.4495    1.5576    0.6460 O   0  0  0  0  0  0  0  0  0  0  0  0
    0.6479    0.8519    0.9284 C   0  0  0  0  0  0  0  0  0  0  0  0
    0.8785   -0.5131    1.0231 C   0  0  0  0  0  0  0  0  0  0  0  0
   -0.0555   -1.6389    0.7587 C   0  0  0  0  0  0  0  0  0  0  0  0
    2.2388   -0.6315    1.4320 C   0  0  0  0  0  0  0  0  0  0  0  0
    2.9670   -1.8744    1.7256 C   0  0  0  0  0  0  0  0  0  0  0  0
    2.4811   -2.9999    1.7025 O   0  0  0  0  0  0  0  0  0  0  0  0
    4.2747   -1.7215    2.0494 O   0  0  0  0  0  0  0  0  0  0  0  0
    2.8163    0.5741    1.5343 N   0  0  0  0  0  0  0  0  0  0  0  0
    1.8789    1.4739    1.1316 N   0  0  0  0  0  0  0  0  0  0  0  0
    2.2433    2.8552    1.0170 C   0  0  0  0  0  0  0  0  0  0  0  0
    3.5392    3.2493    1.4007 C   0  0  0  0  0  0  0  0  0  0  0  0
    3.9364    4.5855    1.3082 C   0  0  0  0  0  0  0  0  0  0  0  0
    3.0485    5.5453    0.8315 C   0  0  0  0  0  0  0  0  0  0  0  0
    1.7691    5.1669    0.4342 C   0  0  0  0  0  0  0  0  0  0  0  0
    1.3654    3.8307    0.5223 C   0  0  0  0  0  0  0  0  0  0  0  0
   -9.2329    0.8299    4.1912 H   0  0  0  0  0  0  0  0  0  0  0  0
   -7.5444    1.3600    4.2961 H   0  0  0  0  0  0  0  0  0  0  0  0
   -8.5316    1.8353    2.9132 H   0  0  0  0  0  0  0  0  0  0  0  0
   -8.7309   -0.5447    2.1927 H   0  0  0  0  0  0  0  0  0  0  0  0
   -7.1589   -2.2433    3.2810 H   0  0  0  0  0  0  0  0  0  0  0  0
   -8.5769   -1.7648    4.2360 H   0  0  0  0  0  0  0  0  0  0  0  0
   -6.9836   -1.1134    4.6328 H   0  0  0  0  0  0  0  0  0  0  0  0
   -5.5371    0.1453    3.6079 H   0  0  0  0  0  0  0  0  0  0  0  0
   -4.8884    0.8815   -0.0083 H   0  0  0  0  0  0  0  0  0  0  0  0
   -3.3046    0.3884    3.9781 H   0  0  0  0  0  0  0  0  0  0  0  0
   -1.0624    0.9463    3.1638 H   0  0  0  0  0  0  0  0  0  0  0  0
   -4.2473    2.2617   -2.6984 H   0  0  0  0  0  0  0  0  0  0  0  0
   -3.3937    0.0900   -3.8027 H   0  0  0  0  0  0  0  0  0  0  0  0
   -3.9804   -0.7105   -2.3286 H   0  0  0  0  0  0  0  0  0  0  0  0
   -5.5981   -0.9215   -4.1271 H   0  0  0  0  0  0  0  0  0  0  0  0
   -5.7831    2.1299   -4.2726 H   0  0  0  0  0  0  0  0  0  0  0  0
   -4.9746    1.0861   -5.4547 H   0  0  0  0  0  0  0  0  0  0  0  0
   -6.7202    0.9582   -5.2038 H   0  0  0  0  0  0  0  0  0  0  0  0
   -6.6732    1.0604   -2.0551 H   0  0  0  0  0  0  0  0  0  0  0  0
   -6.5046   -0.6950   -1.8350 H   0  0  0  0  0  0  0  0  0  0  0  0
   -7.6259   -0.0558   -3.0428 H   0  0  0  0  0  0  0  0  0  0  0  0
    0.4080   -2.3582    0.0773 H   0  0  0  0  0  0  0  0  0  0  0  0
   -0.9849   -1.3129    0.2864 H   0  0  0  0  0  0  0  0  0  0  0  0
   -0.3085   -2.1551    1.6886 H   0  0  0  0  0  0  0  0  0  0  0  0
    4.5814   -2.6337    2.2136 H   0  0  0  0  0  0  0  0  0  0  0  0
    4.2589    2.5210    1.7737 H   0  0  0  0  0  0  0  0  0  0  0  0
    4.9428    4.8725    1.6059 H   0  0  0  0  0  0  0  0  0  0  0  0
    3.3574    6.5840    0.7546 H   0  0  0  0  0  0  0  0  0  0  0  0
    1.0782    5.9128    0.0462 H   0  0  0  0  0  0  0  0  0  0  0  0
    0.3677    3.6012    0.1645 H   0  0  0  0  0  0  0  0  0  0  0  0
  1  2  1  0
  2  3  1  0
  2  4  1  0
  4  5  2  0
  4  6  1  0
  6  7  1  0
  7  8  2  0
  7  9  1  0
  9 10  2  0
 10 11  1  0
 11 12  2  0
 12 13  1  0
 13 14  2  0
 13 15  2  0
 13 16  1  0
 16 17  1  0
 17 18  1  0
 18 19  1  0
 18 20  1  0
 11 21  1  0
 21 22  1  0
 22 23  2  0
 23 24  1  0
 23 25  1  0
 25 26  1  0
 26 27  2  0
 26 28  1  0
 25 29  2  0
 29 30  1  0
 30 31  1  0
 31 32  2  0
 32 33  1  0
 33 34  2  0
 34 35  1  0
 35 36  2  0
 12  8  1  0
 30 22  1  0
 36 31  1  0
  1 37  1  0
  1 38  1  0
  1 39  1  0
  2 40  1  0
  3 41  1  0
  3 42  1  0
  3 43  1  0
  6 44  1  0
  8 45  1  0
  9 46  1  0
 10 47  1  0
 16 48  1  0
 17 49  1  0
 17 50  1  0
 18 51  1  0
 19 52  1  0
 19 53  1  0
 19 54  1  0
 20 55  1  0
 20 56  1  0
 20 57  1  0
 24 58  1  0
 24 59  1  0
 24 60  1  0
 28 61  1  0
 32 62  1  0
 33 63  1  0
 34 64  1  0
 35 65  1  0
 36 66  1  0
M  END
>  <mol_id>  (41) 
V027-3903

>  <drugclip_rank>  (41) 
41

>  <conformer>  (41) 
11

>  <align_rmsd>  (41) 
0.215

$$$$
STL458084
     RDKit          3D

 65 67  0  0  0  0  0  0  0  0999 V2000
    2.9951    0.8216   -1.6452 C   0  0  0  0  0  0  0  0  0  0  0  0
    3.4167    0.5802   -2.9583 C   0  0  0  0  0  0  0  0  0  0  0  0
    2.6556   -0.2271   -3.8013 C   0  0  0  0  0  0  0  0  0  0  0  0
    2.9468   -0.5363   -5.1009 O   0  0  0  0  0  0  0  0  0  0  0  0
    4.1579   -0.0129   -5.6296 C   0  0  0  0  0  0  0  0  0  0  0  0
    1.4764   -0.7955   -3.3163 C   0  0  0  0  0  0  0  0  0  0  0  0
    1.0536   -0.5578   -2.0056 C   0  0  0  0  0  0  0  0  0  0  0  0
    1.8018    0.2670   -1.1523 C   0  0  0  0  0  0  0  0  0  0  0  0
    1.3726    0.5583    0.2895 C   0  0  0  0  0  0  0  0  0  0  0  0
    1.8664   -0.4990    1.1859 N   0  0  0  0  0  0  0  0  0  0  0  0
    3.1168   -0.3385    1.7509 C   0  0  0  0  0  0  0  0  0  0  0  0
    3.7942    0.6777    1.6205 O   0  0  0  0  0  0  0  0  0  0  0  0
    3.5565   -1.4015    2.4959 N   0  0  0  0  0  0  0  0  0  0  0  0
    4.8768   -1.3484    3.1395 C   0  0  2  0  0  0  0  0  0  0  0  0
    5.8769   -1.8394    2.0902 C   0  0  0  0  0  0  0  0  0  0  0  0
    5.6732   -2.7199    1.2656 O   0  0  0  0  0  0  0  0  0  0  0  0
    7.0783   -1.2339    2.1600 O   0  0  0  0  0  0  0  0  0  0  0  0
    4.9065   -2.2522    4.3937 C   0  0  0  0  0  0  0  0  0  0  0  0
    6.2655   -2.1913    5.1038 C   0  0  0  0  0  0  0  0  0  0  0  0
    3.7628   -1.9445    5.3890 C   0  0  0  0  0  0  0  0  0  0  0  0
    3.7382   -0.5202    5.9256 C   0  0  0  0  0  0  0  0  0  0  0  0
    0.9420   -1.5988    1.4578 C   0  0  0  0  0  0  0  0  0  0  0  0
   -0.3442   -1.0727    2.0860 C   0  0  0  0  0  0  0  0  0  0  0  0
   -0.9450    0.0407    1.2668 C   0  0  0  0  0  0  0  0  0  0  0  0
   -0.1304    0.8283    0.4368 C   0  0  0  0  0  0  0  0  0  0  0  0
   -2.3139    0.3302    1.3834 C   0  0  0  0  0  0  0  0  0  0  0  0
   -2.8888    1.3840    0.6652 C   0  0  0  0  0  0  0  0  0  0  0  0
   -4.2189    1.7223    0.7163 O   0  0  0  0  0  0  0  0  0  0  0  0
   -5.0920    0.8599    1.4308 C   0  0  0  0  0  0  0  0  0  0  0  0
   -2.0798    2.1783   -0.1676 C   0  0  0  0  0  0  0  0  0  0  0  0
   -0.7125    1.9004   -0.2676 C   0  0  0  0  0  0  0  0  0  0  0  0
   -2.7140    3.1981   -0.8340 O   0  0  0  0  0  0  0  0  0  0  0  0
   -1.9510    3.9480   -1.7680 C   0  0  0  0  0  0  0  0  0  0  0  0
    3.6112    1.4479   -1.0002 H   0  0  0  0  0  0  0  0  0  0  0  0
    4.3430    1.0407   -3.2857 H   0  0  0  0  0  0  0  0  0  0  0  0
    4.2467   -0.3564   -6.6646 H   0  0  0  0  0  0  0  0  0  0  0  0
    5.0253   -0.3902   -5.0784 H   0  0  0  0  0  0  0  0  0  0  0  0
    4.1425    1.0817   -5.6437 H   0  0  0  0  0  0  0  0  0  0  0  0
    0.8784   -1.4296   -3.9658 H   0  0  0  0  0  0  0  0  0  0  0  0
    0.1279   -1.0169   -1.6653 H   0  0  0  0  0  0  0  0  0  0  0  0
    1.8488    1.5012    0.5922 H   0  0  0  0  0  0  0  0  0  0  0  0
    3.3760   -2.2859    2.0385 H   0  0  0  0  0  0  0  0  0  0  0  0
    5.1123   -0.3098    3.3939 H   0  0  0  0  0  0  0  0  0  0  0  0
    7.5849   -1.6245    1.4177 H   0  0  0  0  0  0  0  0  0  0  0  0
    4.7636   -3.2936    4.0721 H   0  0  0  0  0  0  0  0  0  0  0  0
    6.5531   -1.1618    5.3385 H   0  0  0  0  0  0  0  0  0  0  0  0
    7.0538   -2.6276    4.4823 H   0  0  0  0  0  0  0  0  0  0  0  0
    6.2424   -2.7626    6.0375 H   0  0  0  0  0  0  0  0  0  0  0  0
    2.7979   -2.1580    4.9137 H   0  0  0  0  0  0  0  0  0  0  0  0
    3.8348   -2.6355    6.2386 H   0  0  0  0  0  0  0  0  0  0  0  0
    2.9090   -0.3996    6.6306 H   0  0  0  0  0  0  0  0  0  0  0  0
    4.6618   -0.2768    6.4583 H   0  0  0  0  0  0  0  0  0  0  0  0
    3.5956    0.2103    5.1232 H   0  0  0  0  0  0  0  0  0  0  0  0
    1.3725   -2.3445    2.1306 H   0  0  0  0  0  0  0  0  0  0  0  0
    0.7346   -2.1054    0.5089 H   0  0  0  0  0  0  0  0  0  0  0  0
   -1.0562   -1.8995    2.1852 H   0  0  0  0  0  0  0  0  0  0  0  0
   -0.1358   -0.6828    3.0900 H   0  0  0  0  0  0  0  0  0  0  0  0
   -2.9122   -0.2805    2.0520 H   0  0  0  0  0  0  0  0  0  0  0  0
   -4.8726    0.8797    2.5036 H   0  0  0  0  0  0  0  0  0  0  0  0
   -6.1133    1.2294    1.2933 H   0  0  0  0  0  0  0  0  0  0  0  0
   -5.0543   -0.1615    1.0366 H   0  0  0  0  0  0  0  0  0  0  0  0
   -0.0677    2.5064   -0.8969 H   0  0  0  0  0  0  0  0  0  0  0  0
   -1.1591    4.5129   -1.2659 H   0  0  0  0  0  0  0  0  0  0  0  0
   -1.5416    3.3058   -2.5548 H   0  0  0  0  0  0  0  0  0  0  0  0
   -2.6223    4.6688   -2.2456 H   0  0  0  0  0  0  0  0  0  0  0  0
  1  2  2  0
  2  3  1  0
  3  4  1  0
  4  5  1  0
  3  6  2  0
  6  7  1  0
  7  8  2  0
  8  9  1  0
  9 10  1  0
 10 11  1  0
 11 12  2  0
 11 13  1  0
 13 14  1  0
 14 15  1  0
 15 16  2  0
 15 17  1  0
 14 18  1  0
 18 19  1  0
 18 20  1  0
 20 21  1  0
 10 22  1  0
 22 23  1  0
 23 24  1  0
 24 25  2  0
 24 26  1  0
 26 27  2  0
 27 28  1  0
 28 29  1  0
 27 30  1  0
 30 31  2  0
 30 32  1  0
 32 33  1  0
  8  1  1  0
 25  9  1  0
 31 25  1  0
  1 34  1  0
  2 35  1  0
  5 36  1  0
  5 37  1  0
  5 38  1  0
  6 39  1  0
  7 40  1  0
  9 41  1  0
 13 42  1  0
 14 43  1  1
 17 44  1  0
 18 45  1  0
 19 46  1  0
 19 47  1  0
 19 48  1  0
 20 49  1  0
 20 50  1  0
 21 51  1  0
 21 52  1  0
 21 53  1  0
 22 54  1  0
 22 55  1  0
 23 56  1  0
 23 57  1  0
 26 58  1  0
 29 59  1  0
 29 60  1  0
 29 61  1  0
 31 62  1  0
 33 63  1  0
 33 64  1  0
 33 65  1  0
M  END
>  <mol_id>  (42) 
STL458084

>  <drugclip_rank>  (42) 
42

>  <conformer>  (42) 
12

>  <align_rmsd>  (42) 
1.3

$$$$
V030-1765
     RDKit          3D

 72 73  0  0  0  0  0  0  0  0999 V2000
    1.3094    3.5649    2.0081 C   0  0  0  0  0  0  0  0  0  0  0  0
    2.1833    2.7571    1.0284 C   0  0  0  0  0  0  0  0  0  0  0  0
    1.9424    3.2362   -0.4181 C   0  0  0  0  0  0  0  0  0  0  0  0
    3.6612    3.0679    1.3751 C   0  0  0  0  0  0  0  0  0  0  0  0
    1.8864    1.3140    1.1424 N   0  0  0  0  0  0  0  0  0  0  0  0
    2.8532    0.4614    1.5404 N   0  0  0  0  0  0  0  0  0  0  0  0
    2.2914   -0.7590    1.4972 C   0  0  0  0  0  0  0  0  0  0  0  0
    3.0418   -1.9782    1.8306 C   0  0  0  0  0  0  0  0  0  0  0  0
    2.5819   -3.1140    1.8459 O   0  0  0  0  0  0  0  0  0  0  0  0
    4.3472   -1.7907    2.1469 O   0  0  0  0  0  0  0  0  0  0  0  0
    0.9223   -0.6728    1.0947 C   0  0  0  0  0  0  0  0  0  0  0  0
   -0.0115   -1.8108    0.8903 C   0  0  0  0  0  0  0  0  0  0  0  0
    0.6793    0.6821    0.9324 C   0  0  0  0  0  0  0  0  0  0  0  0
   -0.4006    1.3820    0.5801 O   0  0  0  0  0  0  0  0  0  0  0  0
   -1.6484    1.0913    1.0737 C   0  0  0  0  0  0  0  0  0  0  0  0
   -2.7583    1.2359    0.2422 C   0  0  0  0  0  0  0  0  0  0  0  0
   -2.5008    1.6500   -1.4572 S   0  0  0  0  0  0  0  0  0  0  0  0
   -1.5465    0.7296   -2.0319 O   0  0  0  0  0  0  0  0  0  0  0  0
   -2.3420    3.0856   -1.5262 O   0  0  0  0  0  0  0  0  0  0  0  0
   -3.9922    1.3391   -2.1989 N   0  0  0  0  0  0  0  0  0  0  0  0
   -4.1968   -0.0111   -2.7588 C   0  0  0  0  0  0  0  0  0  0  0  0
   -5.6886   -0.2410   -3.0275 C   0  0  0  0  0  0  0  0  0  0  0  0
   -5.9388   -1.4437   -3.7538 O   0  0  0  0  0  0  0  0  0  0  0  0
   -5.8086   -2.6186   -2.9648 C   0  0  0  0  0  0  0  0  0  0  0  0
   -1.8439    0.7585    2.4161 C   0  0  0  0  0  0  0  0  0  0  0  0
   -3.1341    0.5433    2.9125 C   0  0  0  0  0  0  0  0  0  0  0  0
   -4.2487    0.6879    2.0843 C   0  0  0  0  0  0  0  0  0  0  0  0
   -4.0541    1.0442    0.7444 C   0  0  0  0  0  0  0  0  0  0  0  0
   -5.5792    0.5117    2.5174 N   0  0  0  0  0  0  0  0  0  0  0  0
   -6.0098    0.0687    3.7634 C   0  0  0  0  0  0  0  0  0  0  0  0
   -5.2870   -0.2574    4.6972 O   0  0  0  0  0  0  0  0  0  0  0  0
   -7.5368    0.0438    3.8392 C   0  0  0  0  0  0  0  0  0  0  0  0
   -8.1814   -0.6568    5.0613 C   0  0  0  0  0  0  0  0  0  0  0  0
   -7.8407    0.0623    6.3775 C   0  0  0  0  0  0  0  0  0  0  0  0
   -7.7587   -2.1346    5.1458 C   0  0  0  0  0  0  0  0  0  0  0  0
   -9.7138   -0.6081    4.8768 C   0  0  0  0  0  0  0  0  0  0  0  0
    1.4273    3.1980    3.0341 H   0  0  0  0  0  0  0  0  0  0  0  0
    0.2451    3.5084    1.7589 H   0  0  0  0  0  0  0  0  0  0  0  0
    1.5840    4.6262    1.9964 H   0  0  0  0  0  0  0  0  0  0  0  0
    0.8973    3.1226   -0.7257 H   0  0  0  0  0  0  0  0  0  0  0  0
    2.5573    2.6674   -1.1266 H   0  0  0  0  0  0  0  0  0  0  0  0
    2.1981    4.2957   -0.5285 H   0  0  0  0  0  0  0  0  0  0  0  0
    3.8727    4.1401    1.2819 H   0  0  0  0  0  0  0  0  0  0  0  0
    3.9005    2.7760    2.4046 H   0  0  0  0  0  0  0  0  0  0  0  0
    4.3526    2.5375    0.7085 H   0  0  0  0  0  0  0  0  0  0  0  0
    4.6700   -2.6929    2.3342 H   0  0  0  0  0  0  0  0  0  0  0  0
    0.4663   -2.6082    0.3144 H   0  0  0  0  0  0  0  0  0  0  0  0
   -0.3296   -2.2191    1.8553 H   0  0  0  0  0  0  0  0  0  0  0  0
   -0.9033   -1.5128    0.3318 H   0  0  0  0  0  0  0  0  0  0  0  0
   -4.2462    2.1266   -2.8001 H   0  0  0  0  0  0  0  0  0  0  0  0
   -3.8294   -0.7717   -2.0611 H   0  0  0  0  0  0  0  0  0  0  0  0
   -3.6375   -0.1116   -3.6952 H   0  0  0  0  0  0  0  0  0  0  0  0
   -6.0758    0.5806   -3.6413 H   0  0  0  0  0  0  0  0  0  0  0  0
   -6.2646   -0.2315   -2.0943 H   0  0  0  0  0  0  0  0  0  0  0  0
   -4.7665   -2.7815   -2.6764 H   0  0  0  0  0  0  0  0  0  0  0  0
   -6.4447   -2.5574   -2.0752 H   0  0  0  0  0  0  0  0  0  0  0  0
   -6.1358   -3.4717   -3.5675 H   0  0  0  0  0  0  0  0  0  0  0  0
   -1.0000    0.6754    3.0975 H   0  0  0  0  0  0  0  0  0  0  0  0
   -3.2299    0.2870    3.9632 H   0  0  0  0  0  0  0  0  0  0  0  0
   -4.9116    1.1802    0.0925 H   0  0  0  0  0  0  0  0  0  0  0  0
   -6.3012    0.7040    1.8335 H   0  0  0  0  0  0  0  0  0  0  0  0
   -7.8987   -0.4466    2.9252 H   0  0  0  0  0  0  0  0  0  0  0  0
   -7.8735    1.0893    3.7987 H   0  0  0  0  0  0  0  0  0  0  0  0
   -8.4129   -0.3595    7.2130 H   0  0  0  0  0  0  0  0  0  0  0  0
   -6.7822   -0.0303    6.6389 H   0  0  0  0  0  0  0  0  0  0  0  0
   -8.0783    1.1313    6.3191 H   0  0  0  0  0  0  0  0  0  0  0  0
   -8.2978   -2.6509    5.9495 H   0  0  0  0  0  0  0  0  0  0  0  0
   -7.9753   -2.6618    4.2109 H   0  0  0  0  0  0  0  0  0  0  0  0
   -6.6898   -2.2471    5.3531 H   0  0  0  0  0  0  0  0  0  0  0  0
  -10.0174   -1.0958    3.9433 H   0  0  0  0  0  0  0  0  0  0  0  0
  -10.0789    0.4265    4.8538 H   0  0  0  0  0  0  0  0  0  0  0  0
  -10.2293   -1.1224    5.6986 H   0  0  0  0  0  0  0  0  0  0  0  0
  1  2  1  0
  2  3  1  0
  2  4  1  0
  2  5  1  0
  5  6  1  0
  6  7  2  0
  7  8  1  0
  8  9  2  0
  8 10  1  0
  7 11  1  0
 11 12  1  0
 11 13  2  0
 13 14  1  0
 14 15  1  0
 15 16  2  0
 16 17  1  0
 17 18  2  0
 17 19  2  0
 17 20  1  0
 20 21  1  0
 21 22  1  0
 22 23  1  0
 23 24  1  0
 15 25  1  0
 25 26  2  0
 26 27  1  0
 27 28  2  0
 27 29  1  0
 29 30  1  0
 30 31  2  0
 30 32  1  0
 32 33  1  0
 33 34  1  0
 33 35  1  0
 33 36  1  0
 13  5  1  0
 28 16  1  0
  1 37  1  0
  1 38  1  0
  1 39  1  0
  3 40  1  0
  3 41  1  0
  3 42  1  0
  4 43  1  0
  4 44  1  0
  4 45  1  0
 10 46  1  0
 12 47  1  0
 12 48  1  0
 12 49  1  0
 20 50  1  0
 21 51  1  0
 21 52  1  0
 22 53  1  0
 22 54  1  0
 24 55  1  0
 24 56  1  0
 24 57  1  0
 25 58  1  0
 26 59  1  0
 28 60  1  0
 29 61  1  0
 32 62  1  0
 32 63  1  0
 34 64  1  0
 34 65  1  0
 34 66  1  0
 35 67  1  0
 35 68  1  0
 35 69  1  0
 36 70  1  0
 36 71  1  0
 36 72  1  0
M  END
>  <mol_id>  (43) 
V030-1765

>  <drugclip_rank>  (43) 
43

>  <conformer>  (43) 
37

>  <align_rmsd>  (43) 
0.22

$$$$
V005-3120
     RDKit          3D

 74 75  0  0  0  0  0  0  0  0999 V2000
    1.5220    3.6452    1.9184 C   0  0  0  0  0  0  0  0  0  0  0  0
    2.2563    2.7689    0.8872 C   0  0  0  0  0  0  0  0  0  0  0  0
    1.8699    3.1987   -0.5434 C   0  0  0  0  0  0  0  0  0  0  0  0
    3.7749    3.0326    1.0473 C   0  0  0  0  0  0  0  0  0  0  0  0
    1.9262    1.3444    1.1013 N   0  0  0  0  0  0  0  0  0  0  0  0
    2.8858    0.4888    1.5095 N   0  0  0  0  0  0  0  0  0  0  0  0
    2.2939   -0.7174    1.5400 C   0  0  0  0  0  0  0  0  0  0  0  0
    3.0270   -1.9387    1.9048 C   0  0  0  0  0  0  0  0  0  0  0  0
    2.5362   -3.0559    2.0187 O   0  0  0  0  0  0  0  0  0  0  0  0
    4.3549   -1.7759    2.1327 O   0  0  0  0  0  0  0  0  0  0  0  0
    0.9105   -0.6148    1.1909 C   0  0  0  0  0  0  0  0  0  0  0  0
   -0.0555   -1.7373    1.0644 C   0  0  0  0  0  0  0  0  0  0  0  0
    0.6913    0.7402    0.9932 C   0  0  0  0  0  0  0  0  0  0  0  0
   -0.3896    1.4623    0.6873 O   0  0  0  0  0  0  0  0  0  0  0  0
   -1.6304    1.1286    1.1668 C   0  0  0  0  0  0  0  0  0  0  0  0
   -2.7259    1.1177    0.3048 C   0  0  0  0  0  0  0  0  0  0  0  0
   -2.4723    1.4388   -1.4160 S   0  0  0  0  0  0  0  0  0  0  0  0
   -1.4112    0.5895   -1.9087 O   0  0  0  0  0  0  0  0  0  0  0  0
   -2.4298    2.8794   -1.5575 O   0  0  0  0  0  0  0  0  0  0  0  0
   -3.9015    0.9721   -2.1647 N   0  0  0  0  0  0  0  0  0  0  0  0
   -4.1785   -0.3783   -2.7067 C   0  0  0  0  0  0  0  0  0  0  0  0
   -5.7039   -0.4549   -2.9065 C   0  0  0  0  0  0  0  0  0  0  0  0
   -3.7616   -1.5126   -1.7640 C   0  0  0  0  0  0  0  0  0  0  0  0
   -3.4943   -0.5242   -4.0711 C   0  0  0  0  0  0  0  0  0  0  0  0
   -1.8287    0.8980    2.5313 C   0  0  0  0  0  0  0  0  0  0  0  0
   -3.1081    0.6112    3.0154 C   0  0  0  0  0  0  0  0  0  0  0  0
   -4.2072    0.5740    2.1506 C   0  0  0  0  0  0  0  0  0  0  0  0
   -4.0125    0.8574    0.7982 C   0  0  0  0  0  0  0  0  0  0  0  0
   -5.4602    0.2508    2.7120 N   0  0  0  0  0  0  0  0  0  0  0  0
   -6.6570    0.0448    2.0427 C   0  0  0  0  0  0  0  0  0  0  0  0
   -6.8177    0.1132    0.8310 O   0  0  0  0  0  0  0  0  0  0  0  0
   -7.7942   -0.2697    3.0165 C   0  0  0  0  0  0  0  0  0  0  0  0
   -9.0969   -0.8614    2.4222 C   0  0  0  0  0  0  0  0  0  0  0  0
   -9.7937    0.1210    1.4688 C   0  0  0  0  0  0  0  0  0  0  0  0
  -10.0584   -1.1450    3.5965 C   0  0  0  0  0  0  0  0  0  0  0  0
   -8.8200   -2.1893    1.6973 C   0  0  0  0  0  0  0  0  0  0  0  0
    1.8176    4.6967    1.8214 H   0  0  0  0  0  0  0  0  0  0  0  0
    1.7432    3.3235    2.9430 H   0  0  0  0  0  0  0  0  0  0  0  0
    0.4345    3.6109    1.7941 H   0  0  0  0  0  0  0  0  0  0  0  0
    2.1998    4.2246   -0.7525 H   0  0  0  0  0  0  0  0  0  0  0  0
    2.3294    2.5411   -1.2899 H   0  0  0  0  0  0  0  0  0  0  0  0
    0.7889    3.1787   -0.7062 H   0  0  0  0  0  0  0  0  0  0  0  0
    4.3627    2.4447    0.3312 H   0  0  0  0  0  0  0  0  0  0  0  0
    4.1261    2.7782    2.0548 H   0  0  0  0  0  0  0  0  0  0  0  0
    4.0132    4.0883    0.8761 H   0  0  0  0  0  0  0  0  0  0  0  0
    4.6601   -2.6761    2.3552 H   0  0  0  0  0  0  0  0  0  0  0  0
    0.4055   -2.5936    0.5654 H   0  0  0  0  0  0  0  0  0  0  0  0
   -0.3999   -2.0548    2.0526 H   0  0  0  0  0  0  0  0  0  0  0  0
   -0.9277   -1.4600    0.4669 H   0  0  0  0  0  0  0  0  0  0  0  0
   -4.3417    1.7591   -2.6438 H   0  0  0  0  0  0  0  0  0  0  0  0
   -6.0032   -1.4250   -3.3151 H   0  0  0  0  0  0  0  0  0  0  0  0
   -6.2365   -0.3122   -1.9588 H   0  0  0  0  0  0  0  0  0  0  0  0
   -6.0535    0.3190   -3.5995 H   0  0  0  0  0  0  0  0  0  0  0  0
   -2.6818   -1.5404   -1.5867 H   0  0  0  0  0  0  0  0  0  0  0  0
   -4.0343   -2.4878   -2.1875 H   0  0  0  0  0  0  0  0  0  0  0  0
   -4.2601   -1.4328   -0.7928 H   0  0  0  0  0  0  0  0  0  0  0  0
   -2.4024   -0.5418   -3.9833 H   0  0  0  0  0  0  0  0  0  0  0  0
   -3.7969   -1.4525   -4.5675 H   0  0  0  0  0  0  0  0  0  0  0  0
   -3.7537    0.3078   -4.7387 H   0  0  0  0  0  0  0  0  0  0  0  0
   -0.9906    0.9393    3.2243 H   0  0  0  0  0  0  0  0  0  0  0  0
   -3.2245    0.4167    4.0781 H   0  0  0  0  0  0  0  0  0  0  0  0
   -4.8524    0.8859    0.1128 H   0  0  0  0  0  0  0  0  0  0  0  0
   -5.4748    0.1172    3.7159 H   0  0  0  0  0  0  0  0  0  0  0  0
   -7.4028   -0.9704    3.7676 H   0  0  0  0  0  0  0  0  0  0  0  0
   -8.0248    0.6688    3.5403 H   0  0  0  0  0  0  0  0  0  0  0  0
   -9.9308    1.1036    1.9386 H   0  0  0  0  0  0  0  0  0  0  0  0
  -10.7843   -0.2498    1.1832 H   0  0  0  0  0  0  0  0  0  0  0  0
   -9.2337    0.2712    0.5406 H   0  0  0  0  0  0  0  0  0  0  0  0
  -10.9920   -1.6005    3.2447 H   0  0  0  0  0  0  0  0  0  0  0  0
   -9.6105   -1.8322    4.3249 H   0  0  0  0  0  0  0  0  0  0  0  0
  -10.3209   -0.2186    4.1235 H   0  0  0  0  0  0  0  0  0  0  0  0
   -9.7528   -2.6649    1.3738 H   0  0  0  0  0  0  0  0  0  0  0  0
   -8.3032   -2.8968    2.3557 H   0  0  0  0  0  0  0  0  0  0  0  0
   -8.2008   -2.0491    0.8032 H   0  0  0  0  0  0  0  0  0  0  0  0
  1  2  1  0
  2  3  1  0
  2  4  1  0
  2  5  1  0
  5  6  1  0
  6  7  2  0
  7  8  1  0
  8  9  2  0
  8 10  1  0
  7 11  1  0
 11 12  1  0
 11 13  2  0
 13 14  1  0
 14 15  1  0
 15 16  2  0
 16 17  1  0
 17 18  2  0
 17 19  2  0
 17 20  1  0
 20 21  1  0
 21 22  1  0
 21 23  1  0
 21 24  1  0
 15 25  1  0
 25 26  2  0
 26 27  1  0
 27 28  2  0
 27 29  1  0
 29 30  1  0
 30 31  2  0
 30 32  1  0
 32 33  1  0
 33 34  1  0
 33 35  1  0
 33 36  1  0
 13  5  1  0
 28 16  1  0
  1 37  1  0
  1 38  1  0
  1 39  1  0
  3 40  1  0
  3 41  1  0
  3 42  1  0
  4 43  1  0
  4 44  1  0
  4 45  1  0
 10 46  1  0
 12 47  1  0
 12 48  1  0
 12 49  1  0
 20 50  1  0
 22 51  1  0
 22 52  1  0
 22 53  1  0
 23 54  1  0
 23 55  1  0
 23 56  1  0
 24 57  1  0
 24 58  1  0
 24 59  1  0
 25 60  1  0
 26 61  1  0
 28 62  1  0
 29 63  1  0
 32 64  1  0
 32 65  1  0
 34 66  1  0
 34 67  1  0
 34 68  1  0
 35 69  1  0
 35 70  1  0
 35 71  1  0
 36 72  1  0
 36 73  1  0
 36 74  1  0
M  END
>  <mol_id>  (44) 
V005-3120

>  <drugclip_rank>  (44) 
44

>  <conformer>  (44) 
3

>  <align_rmsd>  (44) 
0.302

$$$$
Y042-8055
     RDKit          3D

 65 67  0  0  0  0  0  0  0  0999 V2000
    3.0634    0.6317   -1.5650 C   0  0  0  0  0  0  0  0  0  0  0  0
    3.4908    0.3260   -2.8596 C   0  0  0  0  0  0  0  0  0  0  0  0
    2.7036   -0.4562   -3.7046 C   0  0  0  0  0  0  0  0  0  0  0  0
    3.2369   -0.6766   -4.9445 O   0  0  0  0  0  0  0  0  0  0  0  0
    2.4557   -1.4430   -5.8519 C   0  0  0  0  0  0  0  0  0  0  0  0
    1.4818   -0.9396   -3.2392 C   0  0  0  0  0  0  0  0  0  0  0  0
    1.0512   -0.6359   -1.9419 C   0  0  0  0  0  0  0  0  0  0  0  0
    1.8288    0.1642   -1.0887 C   0  0  0  0  0  0  0  0  0  0  0  0
    1.3926    0.5057    0.3410 C   0  0  0  0  0  0  0  0  0  0  0  0
    1.8574   -0.5392    1.2671 N   0  0  0  0  0  0  0  0  0  0  0  0
    3.1062   -0.3902    1.8372 C   0  0  0  0  0  0  0  0  0  0  0  0
    3.7830    0.6281    1.7237 O   0  0  0  0  0  0  0  0  0  0  0  0
    3.5503   -1.4700    2.5573 N   0  0  0  0  0  0  0  0  0  0  0  0
    4.8924   -1.4341    3.1580 C   0  0  2  0  0  0  0  0  0  0  0  0
    5.8700   -1.8583    2.0654 C   0  0  0  0  0  0  0  0  0  0  0  0
    5.6832   -2.7459    1.2450 O   0  0  0  0  0  0  0  0  0  0  0  0
    7.0268   -1.1684    2.0787 O   0  0  0  0  0  0  0  0  0  0  0  0
    4.9313   -2.3820    4.3662 C   0  0  0  0  0  0  0  0  0  0  0  0
    6.2179   -2.2798    5.2129 C   0  0  0  0  0  0  0  0  0  0  0  0
    7.2839   -3.2838    4.7644 C   0  0  0  0  0  0  0  0  0  0  0  0
    5.8964   -2.5305    6.6908 C   0  0  0  0  0  0  0  0  0  0  0  0
    0.9264   -1.6382    1.5196 C   0  0  0  0  0  0  0  0  0  0  0  0
   -0.3847   -1.1119    2.0966 C   0  0  0  0  0  0  0  0  0  0  0  0
   -0.9489    0.0187    1.2748 C   0  0  0  0  0  0  0  0  0  0  0  0
   -0.1060    0.8026    0.4691 C   0  0  0  0  0  0  0  0  0  0  0  0
   -2.3154    0.3294    1.3678 C   0  0  0  0  0  0  0  0  0  0  0  0
   -2.8587    1.4019    0.6519 C   0  0  0  0  0  0  0  0  0  0  0  0
   -4.1836    1.7625    0.6807 O   0  0  0  0  0  0  0  0  0  0  0  0
   -5.0705    0.9649    1.4511 C   0  0  0  0  0  0  0  0  0  0  0  0
   -2.0206    2.1918   -0.1569 C   0  0  0  0  0  0  0  0  0  0  0  0
   -0.6564    1.8908   -0.2367 C   0  0  0  0  0  0  0  0  0  0  0  0
   -2.6265    3.2275   -0.8246 O   0  0  0  0  0  0  0  0  0  0  0  0
   -1.8121    4.0453   -1.6522 C   0  0  0  0  0  0  0  0  0  0  0  0
    3.7062    1.2347   -0.9253 H   0  0  0  0  0  0  0  0  0  0  0  0
    4.4495    0.7009   -3.2102 H   0  0  0  0  0  0  0  0  0  0  0  0
    1.4994   -0.9527   -6.0621 H   0  0  0  0  0  0  0  0  0  0  0  0
    2.3052   -2.4619   -5.4797 H   0  0  0  0  0  0  0  0  0  0  0  0
    3.0081   -1.5111   -6.7941 H   0  0  0  0  0  0  0  0  0  0  0  0
    0.8381   -1.5562   -3.8569 H   0  0  0  0  0  0  0  0  0  0  0  0
    0.0924   -1.0277   -1.6094 H   0  0  0  0  0  0  0  0  0  0  0  0
    1.8857    1.4474    0.6207 H   0  0  0  0  0  0  0  0  0  0  0  0
    3.3520   -2.3453    2.0902 H   0  0  0  0  0  0  0  0  0  0  0  0
    5.1113   -0.4053    3.4659 H   0  0  0  0  0  0  0  0  0  0  0  0
    7.5181   -1.5024    1.3003 H   0  0  0  0  0  0  0  0  0  0  0  0
    4.7759   -3.4194    4.0417 H   0  0  0  0  0  0  0  0  0  0  0  0
    4.0677   -2.1340    4.9994 H   0  0  0  0  0  0  0  0  0  0  0  0
    6.6325   -1.2674    5.1316 H   0  0  0  0  0  0  0  0  0  0  0  0
    6.9223   -4.3143    4.8574 H   0  0  0  0  0  0  0  0  0  0  0  0
    8.1846   -3.1894    5.3815 H   0  0  0  0  0  0  0  0  0  0  0  0
    7.5840   -3.1272    3.7261 H   0  0  0  0  0  0  0  0  0  0  0  0
    5.1800   -1.7908    7.0632 H   0  0  0  0  0  0  0  0  0  0  0  0
    5.4667   -3.5276    6.8410 H   0  0  0  0  0  0  0  0  0  0  0  0
    6.8010   -2.4533    7.3051 H   0  0  0  0  0  0  0  0  0  0  0  0
    1.3370   -2.3734    2.2159 H   0  0  0  0  0  0  0  0  0  0  0  0
    0.7542   -2.1568    0.5698 H   0  0  0  0  0  0  0  0  0  0  0  0
   -0.2176   -0.7402    3.1150 H   0  0  0  0  0  0  0  0  0  0  0  0
   -1.1039   -1.9369    2.1521 H   0  0  0  0  0  0  0  0  0  0  0  0
   -2.9366   -0.2815    2.0147 H   0  0  0  0  0  0  0  0  0  0  0  0
   -6.0765    1.3815    1.3404 H   0  0  0  0  0  0  0  0  0  0  0  0
   -4.8122    1.0009    2.5145 H   0  0  0  0  0  0  0  0  0  0  0  0
   -5.0959   -0.0666    1.0844 H   0  0  0  0  0  0  0  0  0  0  0  0
    0.0106    2.4881   -0.8520 H   0  0  0  0  0  0  0  0  0  0  0  0
   -1.0432    4.5595   -1.0663 H   0  0  0  0  0  0  0  0  0  0  0  0
   -2.4532    4.8106   -2.1008 H   0  0  0  0  0  0  0  0  0  0  0  0
   -1.3685    3.4649   -2.4675 H   0  0  0  0  0  0  0  0  0  0  0  0
  1  2  2  0
  2  3  1  0
  3  4  1  0
  4  5  1  0
  3  6  2  0
  6  7  1  0
  7  8  2  0
  8  9  1  0
  9 10  1  0
 10 11  1  0
 11 12  2  0
 11 13  1  0
 13 14  1  0
 14 15  1  0
 15 16  2  0
 15 17  1  0
 14 18  1  0
 18 19  1  0
 19 20  1  0
 19 21  1  0
 10 22  1  0
 22 23  1  0
 23 24  1  0
 24 25  2  0
 24 26  1  0
 26 27  2  0
 27 28  1  0
 28 29  1  0
 27 30  1  0
 30 31  2  0
 30 32  1  0
 32 33  1  0
  8  1  1  0
 25  9  1  0
 31 25  1  0
  1 34  1  0
  2 35  1  0
  5 36  1  0
  5 37  1  0
  5 38  1  0
  6 39  1  0
  7 40  1  0
  9 41  1  0
 13 42  1  0
 14 43  1  1
 17 44  1  0
 18 45  1  0
 18 46  1  0
 19 47  1  0
 20 48  1  0
 20 49  1  0
 20 50  1  0
 21 51  1  0
 21 52  1  0
 21 53  1  0
 22 54  1  0
 22 55  1  0
 23 56  1  0
 23 57  1  0
 26 58  1  0
 29 59  1  0
 29 60  1  0
 29 61  1  0
 31 62  1  0
 33 63  1  0
 33 64  1  0
 33 65  1  0
M  END
>  <mol_id>  (45) 
Y042-8055

>  <drugclip_rank>  (45) 
45

>  <conformer>  (45) 
23

>  <align_rmsd>  (45) 
1.273

$$$$
V027-3799
     RDKit          3D

 70 73  0  0  0  0  0  0  0  0999 V2000
    1.9232    3.4024   -0.1133 C   0  0  0  0  0  0  0  0  0  0  0  0
    2.5061    4.6117   -0.5149 C   0  0  0  0  0  0  0  0  0  0  0  0
    3.8788    4.8356   -0.3551 C   0  0  0  0  0  0  0  0  0  0  0  0
    4.4896    6.1251   -0.8157 C   0  0  0  0  0  0  0  0  0  0  0  0
    4.6674    3.8258    0.2007 C   0  0  0  0  0  0  0  0  0  0  0  0
    4.0887    2.6196    0.6082 C   0  0  0  0  0  0  0  0  0  0  0  0
    2.7072    2.3946    0.4630 C   0  0  0  0  0  0  0  0  0  0  0  0
    2.1633    1.1391    0.8907 N   0  0  0  0  0  0  0  0  0  0  0  0
    3.0079    0.1880    1.3707 N   0  0  0  0  0  0  0  0  0  0  0  0
    2.2604   -0.9050    1.5736 C   0  0  0  0  0  0  0  0  0  0  0  0
    2.8460   -2.1684    2.0431 C   0  0  0  0  0  0  0  0  0  0  0  0
    2.2225   -3.1982    2.2704 O   0  0  0  0  0  0  0  0  0  0  0  0
    4.1899   -2.1562    2.2247 O   0  0  0  0  0  0  0  0  0  0  0  0
    0.8897   -0.6473    1.2800 C   0  0  0  0  0  0  0  0  0  0  0  0
   -0.2236   -1.6302    1.3494 C   0  0  0  0  0  0  0  0  0  0  0  0
    0.8404    0.6979    0.9358 C   0  0  0  0  0  0  0  0  0  0  0  0
   -0.1722    1.5135    0.6260 O   0  0  0  0  0  0  0  0  0  0  0  0
   -1.4179    1.3797    1.1761 C   0  0  0  0  0  0  0  0  0  0  0  0
   -2.5529    1.4501    0.3723 C   0  0  0  0  0  0  0  0  0  0  0  0
   -2.4441    1.6201   -1.3869 S   0  0  0  0  0  0  0  0  0  0  0  0
   -3.0312    2.9001   -1.7205 O   0  0  0  0  0  0  0  0  0  0  0  0
   -1.1383    1.2287   -1.8657 O   0  0  0  0  0  0  0  0  0  0  0  0
   -3.5368    0.4588   -1.9312 N   0  0  0  0  0  0  0  0  0  0  0  0
   -3.1155   -0.9451   -2.0244 C   0  0  0  0  0  0  0  0  0  0  0  0
   -2.6662   -1.2510   -3.4483 C   0  0  0  0  0  0  0  0  0  0  0  0
   -4.2982   -1.8221   -1.6274 C   0  0  0  0  0  0  0  0  0  0  0  0
   -1.5755    1.2689    2.5603 C   0  0  0  0  0  0  0  0  0  0  0  0
   -2.8528    1.1844    3.1287 C   0  0  0  0  0  0  0  0  0  0  0  0
   -3.9925    1.2363    2.3255 C   0  0  0  0  0  0  0  0  0  0  0  0
   -3.8346    1.3798    0.9440 C   0  0  0  0  0  0  0  0  0  0  0  0
   -5.3120    1.1588    2.8149 N   0  0  0  0  0  0  0  0  0  0  0  0
   -5.7193    0.9930    4.1318 C   0  0  0  0  0  0  0  0  0  0  0  0
   -4.9843    0.8826    5.1055 O   0  0  0  0  0  0  0  0  0  0  0  0
   -7.2462    0.9528    4.2499 C   0  0  0  0  0  0  0  0  0  0  0  0
   -7.7391    0.9344    5.7019 C   0  0  0  0  0  0  0  0  0  0  0  0
   -8.0050   -0.5340    5.9940 C   0  0  0  0  0  0  0  0  0  0  0  0
   -8.6138   -1.0324    4.6952 C   0  0  0  0  0  0  0  0  0  0  0  0
   -7.8153   -0.3246    3.6047 C   0  0  0  0  0  0  0  0  0  0  0  0
    0.8575    3.2949   -0.2884 H   0  0  0  0  0  0  0  0  0  0  0  0
    1.8755    5.3789   -0.9632 H   0  0  0  0  0  0  0  0  0  0  0  0
    3.9028    6.9763   -0.4522 H   0  0  0  0  0  0  0  0  0  0  0  0
    5.5100    6.2434   -0.4332 H   0  0  0  0  0  0  0  0  0  0  0  0
    4.5283    6.1539   -1.9102 H   0  0  0  0  0  0  0  0  0  0  0  0
    5.7413    3.9615    0.3177 H   0  0  0  0  0  0  0  0  0  0  0  0
    4.7405    1.8588    1.0372 H   0  0  0  0  0  0  0  0  0  0  0  0
    4.3947   -3.0715    2.5056 H   0  0  0  0  0  0  0  0  0  0  0  0
   -1.0817   -1.3124    0.7515 H   0  0  0  0  0  0  0  0  0  0  0  0
   -0.5529   -1.7623    2.3864 H   0  0  0  0  0  0  0  0  0  0  0  0
    0.0869   -2.6039    0.9539 H   0  0  0  0  0  0  0  0  0  0  0  0
   -4.2001    0.8220   -2.6149 H   0  0  0  0  0  0  0  0  0  0  0  0
   -2.2967   -1.1474   -1.3260 H   0  0  0  0  0  0  0  0  0  0  0  0
   -3.4715   -1.0681   -4.1692 H   0  0  0  0  0  0  0  0  0  0  0  0
   -1.8192   -0.6220   -3.7409 H   0  0  0  0  0  0  0  0  0  0  0  0
   -2.3565   -2.2965   -3.5417 H   0  0  0  0  0  0  0  0  0  0  0  0
   -4.6249   -1.5964   -0.6062 H   0  0  0  0  0  0  0  0  0  0  0  0
   -5.1549   -1.6625   -2.2913 H   0  0  0  0  0  0  0  0  0  0  0  0
   -4.0282   -2.8824   -1.6675 H   0  0  0  0  0  0  0  0  0  0  0  0
   -0.7072    1.2540    3.2151 H   0  0  0  0  0  0  0  0  0  0  0  0
   -2.9169    1.0880    4.2087 H   0  0  0  0  0  0  0  0  0  0  0  0
   -4.7058    1.4419    0.2960 H   0  0  0  0  0  0  0  0  0  0  0  0
   -6.0496    1.2271    2.1232 H   0  0  0  0  0  0  0  0  0  0  0  0
   -7.6336    1.8509    3.7503 H   0  0  0  0  0  0  0  0  0  0  0  0
   -8.6810    1.4955    5.7704 H   0  0  0  0  0  0  0  0  0  0  0  0
   -7.0422    1.3745    6.4221 H   0  0  0  0  0  0  0  0  0  0  0  0
   -7.0656   -1.0597    6.2040 H   0  0  0  0  0  0  0  0  0  0  0  0
   -8.6751   -0.6720    6.8477 H   0  0  0  0  0  0  0  0  0  0  0  0
   -8.5636   -2.1218    4.6030 H   0  0  0  0  0  0  0  0  0  0  0  0
   -9.6688   -0.7369    4.6347 H   0  0  0  0  0  0  0  0  0  0  0  0
   -8.4590   -0.0859    2.7507 H   0  0  0  0  0  0  0  0  0  0  0  0
   -7.0222   -0.9874    3.2380 H   0  0  0  0  0  0  0  0  0  0  0  0
  1  2  2  0
  2  3  1  0
  3  4  1  0
  3  5  2  0
  5  6  1  0
  6  7  2  0
  7  8  1  0
  8  9  1  0
  9 10  2  0
 10 11  1  0
 11 12  2  0
 11 13  1  0
 10 14  1  0
 14 15  1  0
 14 16  2  0
 16 17  1  0
 17 18  1  0
 18 19  2  0
 19 20  1  0
 20 21  2  0
 20 22  2  0
 20 23  1  0
 23 24  1  0
 24 25  1  0
 24 26  1  0
 18 27  1  0
 27 28  2  0
 28 29  1  0
 29 30  2  0
 29 31  1  0
 31 32  1  0
 32 33  2  0
 32 34  1  0
 34 35  1  0
 35 36  1  0
 36 37  1  0
 37 38  1  0
  7  1  1  0
 16  8  1  0
 30 19  1  0
 38 34  1  0
  1 39  1  0
  2 40  1  0
  4 41  1  0
  4 42  1  0
  4 43  1  0
  5 44  1  0
  6 45  1  0
 13 46  1  0
 15 47  1  0
 15 48  1  0
 15 49  1  0
 23 50  1  0
 24 51  1  0
 25 52  1  0
 25 53  1  0
 25 54  1  0
 26 55  1  0
 26 56  1  0
 26 57  1  0
 27 58  1  0
 28 59  1  0
 30 60  1  0
 31 61  1  0
 34 62  1  0
 35 63  1  0
 35 64  1  0
 36 65  1  0
 36 66  1  0
 37 67  1  0
 37 68  1  0
 38 69  1  0
 38 70  1  0
M  END
>  <mol_id>  (46) 
V027-3799

>  <drugclip_rank>  (46) 
46

>  <conformer>  (46) 
10

>  <align_rmsd>  (46) 
0.796

$$$$
V005-3132
     RDKit          3D

 72 74  0  0  0  0  0  0  0  0999 V2000
    3.7577    3.0782    0.9737 C   0  0  0  0  0  0  0  0  0  0  0  0
    2.2356    2.8097    0.8780 C   0  0  0  0  0  0  0  0  0  0  0  0
    1.5395    3.6595    1.9579 C   0  0  0  0  0  0  0  0  0  0  0  0
    1.7884    3.2677   -0.5251 C   0  0  0  0  0  0  0  0  0  0  0  0
    1.9226    1.3807    1.0857 N   0  0  0  0  0  0  0  0  0  0  0  0
    2.8844    0.5394    1.5190 N   0  0  0  0  0  0  0  0  0  0  0  0
    2.3204   -0.6786    1.5048 C   0  0  0  0  0  0  0  0  0  0  0  0
    3.0685   -1.8934    1.8606 C   0  0  0  0  0  0  0  0  0  0  0  0
    2.6031   -3.0261    1.9108 O   0  0  0  0  0  0  0  0  0  0  0  0
    4.3791   -1.7067    2.1566 O   0  0  0  0  0  0  0  0  0  0  0  0
    0.9427   -0.5947    1.1296 C   0  0  0  0  0  0  0  0  0  0  0  0
   -0.0071   -1.7302    0.9784 C   0  0  0  0  0  0  0  0  0  0  0  0
    0.7021    0.7583    0.9528 C   0  0  0  0  0  0  0  0  0  0  0  0
   -0.3918    1.4643    0.6585 O   0  0  0  0  0  0  0  0  0  0  0  0
   -1.6204    1.1076    1.1541 C   0  0  0  0  0  0  0  0  0  0  0  0
   -2.7234    1.0572    0.3031 C   0  0  0  0  0  0  0  0  0  0  0  0
   -2.4861    1.4064   -1.4138 S   0  0  0  0  0  0  0  0  0  0  0  0
   -2.3439    2.8436   -1.5209 O   0  0  0  0  0  0  0  0  0  0  0  0
   -1.4921    0.4992   -1.9417 O   0  0  0  0  0  0  0  0  0  0  0  0
   -3.9604    1.0748   -2.1499 N   0  0  0  0  0  0  0  0  0  0  0  0
   -4.3070   -0.2083   -2.8097 C   0  0  0  0  0  0  0  0  0  0  0  0
   -4.0207   -1.4322   -1.9329 C   0  0  0  0  0  0  0  0  0  0  0  0
   -3.5771   -0.3098   -4.1558 C   0  0  0  0  0  0  0  0  0  0  0  0
   -5.8237   -0.1508   -3.0830 C   0  0  0  0  0  0  0  0  0  0  0  0
   -1.7977    0.8843    2.5207 C   0  0  0  0  0  0  0  0  0  0  0  0
   -3.0627    0.5612    3.0191 C   0  0  0  0  0  0  0  0  0  0  0  0
   -4.1686    0.4781    2.1652 C   0  0  0  0  0  0  0  0  0  0  0  0
   -3.9964    0.7559    0.8075 C   0  0  0  0  0  0  0  0  0  0  0  0
   -5.4038    0.1239    2.7454 N   0  0  0  0  0  0  0  0  0  0  0  0
   -6.5921   -0.1632    2.0877 C   0  0  0  0  0  0  0  0  0  0  0  0
   -6.7614   -0.1495    0.8736 O   0  0  0  0  0  0  0  0  0  0  0  0
   -7.7223   -0.5025    3.0654 C   0  0  0  0  0  0  0  0  0  0  0  0
   -7.4080   -1.7734    3.8754 C   0  0  0  0  0  0  0  0  0  0  0  0
   -8.6277   -2.6755    3.7324 C   0  0  0  0  0  0  0  0  0  0  0  0
   -9.1963   -2.2973    2.3764 C   0  0  0  0  0  0  0  0  0  0  0  0
   -9.0616   -0.7808    2.3657 C   0  0  0  0  0  0  0  0  0  0  0  0
    4.3181    2.4824    0.2425 H   0  0  0  0  0  0  0  0  0  0  0  0
    3.9853    4.1344    0.7816 H   0  0  0  0  0  0  0  0  0  0  0  0
    4.1485    2.8391    1.9709 H   0  0  0  0  0  0  0  0  0  0  0  0
    0.4481    3.5792    1.9074 H   0  0  0  0  0  0  0  0  0  0  0  0
    1.8408    3.3451    2.9654 H   0  0  0  0  0  0  0  0  0  0  0  0
    1.7913    4.7207    1.8478 H   0  0  0  0  0  0  0  0  0  0  0  0
    0.7010    3.2364   -0.6491 H   0  0  0  0  0  0  0  0  0  0  0  0
    2.0972    4.3020   -0.7198 H   0  0  0  0  0  0  0  0  0  0  0  0
    2.2229    2.6332   -1.3045 H   0  0  0  0  0  0  0  0  0  0  0  0
    4.6938   -2.6092    2.3561 H   0  0  0  0  0  0  0  0  0  0  0  0
    0.4740   -2.5817    0.4871 H   0  0  0  0  0  0  0  0  0  0  0  0
   -0.3698   -2.0526    1.9609 H   0  0  0  0  0  0  0  0  0  0  0  0
   -0.8677   -1.4604    0.3600 H   0  0  0  0  0  0  0  0  0  0  0  0
   -4.3352    1.9199   -2.5857 H   0  0  0  0  0  0  0  0  0  0  0  0
   -4.5672   -1.3886   -0.9840 H   0  0  0  0  0  0  0  0  0  0  0  0
   -2.9585   -1.5473   -1.6961 H   0  0  0  0  0  0  0  0  0  0  0  0
   -4.3350   -2.3525   -2.4431 H   0  0  0  0  0  0  0  0  0  0  0  0
   -2.5031   -0.4881   -4.0302 H   0  0  0  0  0  0  0  0  0  0  0  0
   -3.9720   -1.1354   -4.7611 H   0  0  0  0  0  0  0  0  0  0  0  0
   -3.6890    0.6161   -4.7362 H   0  0  0  0  0  0  0  0  0  0  0  0
   -6.1765   -1.0654   -3.5761 H   0  0  0  0  0  0  0  0  0  0  0  0
   -6.3885   -0.0333   -2.1496 H   0  0  0  0  0  0  0  0  0  0  0  0
   -6.0823    0.6997   -3.7279 H   0  0  0  0  0  0  0  0  0  0  0  0
   -0.9564    0.9624    3.2043 H   0  0  0  0  0  0  0  0  0  0  0  0
   -3.1672    0.3733    4.0853 H   0  0  0  0  0  0  0  0  0  0  0  0
   -4.8444    0.7540    0.1323 H   0  0  0  0  0  0  0  0  0  0  0  0
   -5.4080    0.0167    3.7530 H   0  0  0  0  0  0  0  0  0  0  0  0
   -7.8404    0.3629    3.7305 H   0  0  0  0  0  0  0  0  0  0  0  0
   -6.5217   -2.2905    3.4869 H   0  0  0  0  0  0  0  0  0  0  0  0
   -7.2169   -1.5404    4.9290 H   0  0  0  0  0  0  0  0  0  0  0  0
   -9.3580   -2.4497    4.5207 H   0  0  0  0  0  0  0  0  0  0  0  0
   -8.3701   -3.7361    3.7963 H   0  0  0  0  0  0  0  0  0  0  0  0
  -10.2318   -2.6244    2.2512 H   0  0  0  0  0  0  0  0  0  0  0  0
   -8.5933   -2.7432    1.5752 H   0  0  0  0  0  0  0  0  0  0  0  0
   -9.1374   -0.3776    1.3504 H   0  0  0  0  0  0  0  0  0  0  0  0
   -9.8775   -0.3400    2.9540 H   0  0  0  0  0  0  0  0  0  0  0  0
  1  2  1  0
  2  3  1  0
  2  4  1  0
  2  5  1  0
  5  6  1  0
  6  7  2  0
  7  8  1  0
  8  9  2  0
  8 10  1  0
  7 11  1  0
 11 12  1  0
 11 13  2  0
 13 14  1  0
 14 15  1  0
 15 16  2  0
 16 17  1  0
 17 18  2  0
 17 19  2  0
 17 20  1  0
 20 21  1  0
 21 22  1  0
 21 23  1  0
 21 24  1  0
 15 25  1  0
 25 26  2  0
 26 27  1  0
 27 28  2  0
 27 29  1  0
 29 30  1  0
 30 31  2  0
 30 32  1  0
 32 33  1  0
 33 34  1  0
 34 35  1  0
 35 36  1  0
 13  5  1  0
 28 16  1  0
 36 32  1  0
  1 37  1  0
  1 38  1  0
  1 39  1  0
  3 40  1  0
  3 41  1  0
  3 42  1  0
  4 43  1  0
  4 44  1  0
  4 45  1  0
 10 46  1  0
 12 47  1  0
 12 48  1  0
 12 49  1  0
 20 50  1  0
 22 51  1  0
 22 52  1  0
 22 53  1  0
 23 54  1  0
 23 55  1  0
 23 56  1  0
 24 57  1  0
 24 58  1  0
 24 59  1  0
 25 60  1  0
 26 61  1  0
 28 62  1  0
 29 63  1  0
 32 64  1  0
 33 65  1  0
 33 66  1  0
 34 67  1  0
 34 68  1  0
 35 69  1  0
 35 70  1  0
 36 71  1  0
 36 72  1  0
M  END
>  <mol_id>  (47) 
V005-3132

>  <drugclip_rank>  (47) 
47

>  <conformer>  (47) 
3

>  <align_rmsd>  (47) 
0.361

$$$$
V030-1754
     RDKit          3D

 61 64  0  0  0  0  0  0  0  0999 V2000
    2.8553    2.6910    0.8291 C   0  0  0  0  0  0  0  0  0  0  0  0
    3.0407    4.0476    0.5542 C   0  0  0  0  0  0  0  0  0  0  0  0
    2.1620    4.7087   -0.2898 C   0  0  0  0  0  0  0  0  0  0  0  0
    2.3275    6.0202   -0.5284 F   0  0  0  0  0  0  0  0  0  0  0  0
    1.1010    4.0313   -0.8703 C   0  0  0  0  0  0  0  0  0  0  0  0
    0.9021    2.6722   -0.5923 C   0  0  0  0  0  0  0  0  0  0  0  0
    1.7706    1.9964    0.2726 C   0  0  0  0  0  0  0  0  0  0  0  0
    1.5897    0.6223    0.6066 N   0  0  0  0  0  0  0  0  0  0  0  0
    2.5986   -0.0456    1.2248 N   0  0  0  0  0  0  0  0  0  0  0  0
    2.1984   -1.3235    1.3115 C   0  0  0  0  0  0  0  0  0  0  0  0
    3.0638   -2.3848    1.8483 C   0  0  0  0  0  0  0  0  0  0  0  0
    2.7767   -3.5811    1.8944 O   0  0  0  0  0  0  0  0  0  0  0  0
    4.2644   -1.9766    2.3144 O   0  0  0  0  0  0  0  0  0  0  0  0
    0.8652   -1.4689    0.8337 C   0  0  0  0  0  0  0  0  0  0  0  0
    0.0672   -2.7188    0.7898 C   0  0  0  0  0  0  0  0  0  0  0  0
    0.4766   -0.2041    0.4466 C   0  0  0  0  0  0  0  0  0  0  0  0
   -0.6998    0.2131   -0.0220 O   0  0  0  0  0  0  0  0  0  0  0  0
   -1.6827    0.7029    0.8112 C   0  0  0  0  0  0  0  0  0  0  0  0
   -2.9224    1.0603    0.2655 C   0  0  0  0  0  0  0  0  0  0  0  0
   -3.2284    0.9980   -1.4831 S   0  0  0  0  0  0  0  0  0  0  0  0
   -1.9878    1.0701   -2.2164 O   0  0  0  0  0  0  0  0  0  0  0  0
   -4.3003    1.9324   -1.7638 O   0  0  0  0  0  0  0  0  0  0  0  0
   -3.9117   -0.5199   -1.7015 N   0  0  0  0  0  0  0  0  0  0  0  0
   -3.0502   -1.7025   -1.8336 C   0  0  0  0  0  0  0  0  0  0  0  0
   -2.6842   -1.9346   -3.2975 C   0  0  0  0  0  0  0  0  0  0  0  0
   -3.8073   -2.9022   -1.2695 C   0  0  0  0  0  0  0  0  0  0  0  0
   -1.4828    0.8749    2.1850 C   0  0  0  0  0  0  0  0  0  0  0  0
   -2.4901    1.4119    2.9919 C   0  0  0  0  0  0  0  0  0  0  0  0
   -3.7276    1.7660    2.4537 C   0  0  0  0  0  0  0  0  0  0  0  0
   -3.9425    1.5770    1.0858 C   0  0  0  0  0  0  0  0  0  0  0  0
   -4.7835    2.2988    3.2228 N   0  0  0  0  0  0  0  0  0  0  0  0
   -4.7089    2.7072    4.5380 C   0  0  0  0  0  0  0  0  0  0  0  0
   -3.6871    2.8435    5.1996 O   0  0  0  0  0  0  0  0  0  0  0  0
   -6.0133    3.0196    5.1813 C   0  0  0  0  0  0  0  0  0  0  0  0
   -7.3793    2.6121    4.6819 C   0  0  0  0  0  0  0  0  0  0  0  0
   -6.7560    1.8701    5.8185 C   0  0  0  0  0  0  0  0  0  0  0  0
    3.5512    2.1946    1.5001 H   0  0  0  0  0  0  0  0  0  0  0  0
    3.8541    4.5926    1.0096 H   0  0  0  0  0  0  0  0  0  0  0  0
    0.4240    4.5589   -1.5357 H   0  0  0  0  0  0  0  0  0  0  0  0
    0.0732    2.1708   -1.0914 H   0  0  0  0  0  0  0  0  0  0  0  0
    4.6830   -2.7879    2.6447 H   0  0  0  0  0  0  0  0  0  0  0  0
   -0.9793   -2.5249    0.5328 H   0  0  0  0  0  0  0  0  0  0  0  0
    0.4808   -3.4032    0.0408 H   0  0  0  0  0  0  0  0  0  0  0  0
    0.0754   -3.2198    1.7639 H   0  0  0  0  0  0  0  0  0  0  0  0
   -4.7539   -0.4793   -2.2727 H   0  0  0  0  0  0  0  0  0  0  0  0
   -2.1380   -1.5703   -1.2479 H   0  0  0  0  0  0  0  0  0  0  0  0
   -2.0575   -2.8261   -3.4059 H   0  0  0  0  0  0  0  0  0  0  0  0
   -3.5777   -2.0620   -3.9159 H   0  0  0  0  0  0  0  0  0  0  0  0
   -2.1217   -1.0890   -3.7065 H   0  0  0  0  0  0  0  0  0  0  0  0
   -4.7198   -3.1019   -1.8430 H   0  0  0  0  0  0  0  0  0  0  0  0
   -4.0993   -2.7191   -0.2297 H   0  0  0  0  0  0  0  0  0  0  0  0
   -3.1824   -3.7991   -1.2990 H   0  0  0  0  0  0  0  0  0  0  0  0
   -0.5418    0.6098    2.6633 H   0  0  0  0  0  0  0  0  0  0  0  0
   -2.2765    1.5321    4.0485 H   0  0  0  0  0  0  0  0  0  0  0  0
   -4.8907    1.8644    0.6383 H   0  0  0  0  0  0  0  0  0  0  0  0
   -5.6800    2.3967    2.7652 H   0  0  0  0  0  0  0  0  0  0  0  0
   -5.9687    3.9324    5.7686 H   0  0  0  0  0  0  0  0  0  0  0  0
   -7.4980    2.0814    3.7476 H   0  0  0  0  0  0  0  0  0  0  0  0
   -8.2156    3.2531    4.9166 H   0  0  0  0  0  0  0  0  0  0  0  0
   -6.4239    0.8627    5.6257 H   0  0  0  0  0  0  0  0  0  0  0  0
   -7.1312    2.0226    6.8180 H   0  0  0  0  0  0  0  0  0  0  0  0
  1  2  2  0
  2  3  1  0
  3  4  1  0
  3  5  2  0
  5  6  1  0
  6  7  2  0
  7  8  1  0
  8  9  1  0
  9 10  2  0
 10 11  1  0
 11 12  2  0
 11 13  1  0
 10 14  1  0
 14 15  1  0
 14 16  2  0
 16 17  1  0
 17 18  1  0
 18 19  2  0
 19 20  1  0
 20 21  2  0
 20 22  2  0
 20 23  1  0
 23 24  1  0
 24 25  1  0
 24 26  1  0
 18 27  1  0
 27 28  2  0
 28 29  1  0
 29 30  2  0
 29 31  1  0
 31 32  1  0
 32 33  2  0
 32 34  1  0
 34 35  1  0
 35 36  1  0
  7  1  1  0
 16  8  1  0
 30 19  1  0
 36 34  1  0
  1 37  1  0
  2 38  1  0
  5 39  1  0
  6 40  1  0
 13 41  1  0
 15 42  1  0
 15 43  1  0
 15 44  1  0
 23 45  1  0
 24 46  1  0
 25 47  1  0
 25 48  1  0
 25 49  1  0
 26 50  1  0
 26 51  1  0
 26 52  1  0
 27 53  1  0
 28 54  1  0
 30 55  1  0
 31 56  1  0
 34 57  1  0
 35 58  1  0
 35 59  1  0
 36 60  1  0
 36 61  1  0
M  END
>  <mol_id>  (48) 
V030-1754

>  <drugclip_rank>  (48) 
48

>  <conformer>  (48) 
39

>  <align_rmsd>  (48) 
0.881

$$$$
V030-1764
     RDKit          3D

 65 66  0  0  0  0  0  0  0  0999 V2000
    2.5012   -2.9483    1.8783 O   0  0  0  0  0  0  0  0  0  0  0  0
    2.9608   -1.8139    1.8092 C   0  0  0  0  0  0  0  0  0  0  0  0
    4.2867   -1.6254    2.0267 O   0  0  0  0  0  0  0  0  0  0  0  0
    2.1893   -0.5979    1.5140 C   0  0  0  0  0  0  0  0  0  0  0  0
    0.7990   -0.5177    1.1601 C   0  0  0  0  0  0  0  0  0  0  0  0
   -0.1310   -1.6595    0.9592 C   0  0  0  0  0  0  0  0  0  0  0  0
    0.5385    0.8392    1.0450 C   0  0  0  0  0  0  0  0  0  0  0  0
    1.7492    1.4576    1.2052 N   0  0  0  0  0  0  0  0  0  0  0  0
    2.7434    0.6285    1.5582 N   0  0  0  0  0  0  0  0  0  0  0  0
    2.0144    2.8737    1.0994 C   0  0  0  0  0  0  0  0  0  0  0  0
   -0.5456    1.5737    0.7829 O   0  0  0  0  0  0  0  0  0  0  0  0
   -1.8016    1.1550    1.1433 C   0  0  0  0  0  0  0  0  0  0  0  0
   -2.8376    1.1865    0.2079 C   0  0  0  0  0  0  0  0  0  0  0  0
   -2.4502    1.6888   -1.4431 S   0  0  0  0  0  0  0  0  0  0  0  0
   -1.9853    3.0569   -1.3927 O   0  0  0  0  0  0  0  0  0  0  0  0
   -1.6606    0.6257   -2.0278 O   0  0  0  0  0  0  0  0  0  0  0  0
   -3.8997    1.6573   -2.2928 N   0  0  0  0  0  0  0  0  0  0  0  0
   -4.7628    2.8517   -2.3557 C   0  0  0  0  0  0  0  0  0  0  0  0
   -6.2003    2.3679   -2.5563 C   0  0  0  0  0  0  0  0  0  0  0  0
   -4.3035    3.7486   -3.5175 C   0  0  0  0  0  0  0  0  0  0  0  0
   -5.0939    5.0457   -3.6319 C   0  0  0  0  0  0  0  0  0  0  0  0
   -2.0718    0.7759    2.4591 C   0  0  0  0  0  0  0  0  0  0  0  0
   -3.3652    0.3961    2.8232 C   0  0  0  0  0  0  0  0  0  0  0  0
   -4.4078    0.4139    1.8875 C   0  0  0  0  0  0  0  0  0  0  0  0
   -4.1352    0.8037    0.5731 C   0  0  0  0  0  0  0  0  0  0  0  0
   -5.6814    0.0190    2.3484 N   0  0  0  0  0  0  0  0  0  0  0  0
   -6.8876    0.0967    1.6684 C   0  0  0  0  0  0  0  0  0  0  0  0
   -7.0441    0.6021    0.5624 O   0  0  0  0  0  0  0  0  0  0  0  0
   -8.0585   -0.4986    2.4711 C   0  0  0  0  0  0  0  0  0  0  0  0
   -9.4228   -0.1194    1.8542 C   0  0  0  0  0  0  0  0  0  0  0  0
   -9.8035   -0.8754    0.5858 C   0  0  0  0  0  0  0  0  0  0  0  0
   -7.8553   -2.0108    2.6844 C   0  0  0  0  0  0  0  0  0  0  0  0
   -8.8954   -2.6388    3.6022 C   0  0  0  0  0  0  0  0  0  0  0  0
    4.6194   -2.5258    2.2041 H   0  0  0  0  0  0  0  0  0  0  0  0
   -0.9599   -1.3948    0.2939 H   0  0  0  0  0  0  0  0  0  0  0  0
   -0.5423   -1.9908    1.9182 H   0  0  0  0  0  0  0  0  0  0  0  0
    0.3801   -2.5052    0.4891 H   0  0  0  0  0  0  0  0  0  0  0  0
    3.0506    3.0203    0.7830 H   0  0  0  0  0  0  0  0  0  0  0  0
    1.3429    3.3140    0.3580 H   0  0  0  0  0  0  0  0  0  0  0  0
    1.8493    3.3218    2.0818 H   0  0  0  0  0  0  0  0  0  0  0  0
   -3.8578    1.0540   -3.1139 H   0  0  0  0  0  0  0  0  0  0  0  0
   -4.7097    3.3969   -1.4066 H   0  0  0  0  0  0  0  0  0  0  0  0
   -6.4852    1.6519   -1.7794 H   0  0  0  0  0  0  0  0  0  0  0  0
   -6.9115    3.1985   -2.5192 H   0  0  0  0  0  0  0  0  0  0  0  0
   -6.3163    1.8573   -3.5187 H   0  0  0  0  0  0  0  0  0  0  0  0
   -3.2458    4.0076   -3.3956 H   0  0  0  0  0  0  0  0  0  0  0  0
   -4.3724    3.2015   -4.4673 H   0  0  0  0  0  0  0  0  0  0  0  0
   -5.0990    5.5902   -2.6807 H   0  0  0  0  0  0  0  0  0  0  0  0
   -6.1288    4.8613   -3.9368 H   0  0  0  0  0  0  0  0  0  0  0  0
   -4.6377    5.6927   -4.3872 H   0  0  0  0  0  0  0  0  0  0  0  0
   -1.2820    0.7810    3.2071 H   0  0  0  0  0  0  0  0  0  0  0  0
   -3.5450    0.1023    3.8547 H   0  0  0  0  0  0  0  0  0  0  0  0
   -4.9151    0.8000   -0.1773 H   0  0  0  0  0  0  0  0  0  0  0  0
   -5.7289   -0.2783    3.3145 H   0  0  0  0  0  0  0  0  0  0  0  0
   -8.0209   -0.0064    3.4545 H   0  0  0  0  0  0  0  0  0  0  0  0
  -10.2095   -0.2820    2.6012 H   0  0  0  0  0  0  0  0  0  0  0  0
   -9.4345    0.9583    1.6394 H   0  0  0  0  0  0  0  0  0  0  0  0
  -10.7546   -0.4956    0.1990 H   0  0  0  0  0  0  0  0  0  0  0  0
   -9.0539   -0.7559   -0.2021 H   0  0  0  0  0  0  0  0  0  0  0  0
   -9.9335   -1.9443    0.7766 H   0  0  0  0  0  0  0  0  0  0  0  0
   -7.8482   -2.5346    1.7213 H   0  0  0  0  0  0  0  0  0  0  0  0
   -6.8699   -2.1971    3.1261 H   0  0  0  0  0  0  0  0  0  0  0  0
   -8.6730   -3.7019    3.7469 H   0  0  0  0  0  0  0  0  0  0  0  0
   -9.9042   -2.5656    3.1869 H   0  0  0  0  0  0  0  0  0  0  0  0
   -8.8909   -2.1565    4.5864 H   0  0  0  0  0  0  0  0  0  0  0  0
  1  2  2  0
  2  3  1  0
  2  4  1  0
  4  5  1  0
  5  6  1  0
  5  7  2  0
  7  8  1  0
  8  9  1  0
  8 10  1  0
  7 11  1  0
 11 12  1  0
 12 13  2  0
 13 14  1  0
 14 15  2  0
 14 16  2  0
 14 17  1  0
 17 18  1  0
 18 19  1  0
 18 20  1  0
 20 21  1  0
 12 22  1  0
 22 23  2  0
 23 24  1  0
 24 25  2  0
 24 26  1  0
 26 27  1  0
 27 28  2  0
 27 29  1  0
 29 30  1  0
 30 31  1  0
 29 32  1  0
 32 33  1  0
  9  4  2  0
 25 13  1  0
  3 34  1  0
  6 35  1  0
  6 36  1  0
  6 37  1  0
 10 38  1  0
 10 39  1  0
 10 40  1  0
 17 41  1  0
 18 42  1  0
 19 43  1  0
 19 44  1  0
 19 45  1  0
 20 46  1  0
 20 47  1  0
 21 48  1  0
 21 49  1  0
 21 50  1  0
 22 51  1  0
 23 52  1  0
 25 53  1  0
 26 54  1  0
 29 55  1  0
 30 56  1  0
 30 57  1  0
 31 58  1  0
 31 59  1  0
 31 60  1  0
 32 61  1  0
 32 62  1  0
 33 63  1  0
 33 64  1  0
 33 65  1  0
M  END
>  <mol_id>  (49) 
V030-1764

>  <drugclip_rank>  (49) 
49

>  <conformer>  (49) 
7

>  <align_rmsd>  (49) 
0.406

$$$$
V007-7729
     RDKit          3D

 64 67  0  0  0  0  0  0  0  0999 V2000
    1.6563    3.5604    0.6589 C   0  0  0  0  0  0  0  0  0  0  0  0
    2.0554    4.8494    0.2903 C   0  0  0  0  0  0  0  0  0  0  0  0
    3.3550    5.0789   -0.1378 C   0  0  0  0  0  0  0  0  0  0  0  0
    4.2613    4.0232   -0.1791 C   0  0  0  0  0  0  0  0  0  0  0  0
    3.8821    2.7116    0.1826 C   0  0  0  0  0  0  0  0  0  0  0  0
    4.9412    1.6456    0.0498 C   0  0  0  0  0  0  0  0  0  0  0  0
    2.5485    2.4711    0.6032 C   0  0  0  0  0  0  0  0  0  0  0  0
    2.0918    1.1599    0.9879 N   0  0  0  0  0  0  0  0  0  0  0  0
    2.9814    0.2269    1.4044 N   0  0  0  0  0  0  0  0  0  0  0  0
    2.2754   -0.8762    1.6864 C   0  0  0  0  0  0  0  0  0  0  0  0
    0.8908   -0.6751    1.4252 C   0  0  0  0  0  0  0  0  0  0  0  0
   -0.1794   -1.7037    1.4982 C   0  0  0  0  0  0  0  0  0  0  0  0
    2.9180   -2.0986    2.1889 C   0  0  0  0  0  0  0  0  0  0  0  0
    2.3291   -3.0859    2.6183 O   0  0  0  0  0  0  0  0  0  0  0  0
    4.2740   -2.0897    2.1786 O   0  0  0  0  0  0  0  0  0  0  0  0
    0.7853    0.6607    1.0565 C   0  0  0  0  0  0  0  0  0  0  0  0
   -0.2570    1.4074    0.6777 O   0  0  0  0  0  0  0  0  0  0  0  0
   -1.5142    1.2525    1.1994 C   0  0  0  0  0  0  0  0  0  0  0  0
   -2.6251    1.3815    0.3677 C   0  0  0  0  0  0  0  0  0  0  0  0
   -2.4460    1.6155   -1.3785 S   0  0  0  0  0  0  0  0  0  0  0  0
   -2.8826    2.9631   -1.6667 O   0  0  0  0  0  0  0  0  0  0  0  0
   -1.1794    1.0975   -1.8394 O   0  0  0  0  0  0  0  0  0  0  0  0
   -3.6411    0.6097   -2.0101 N   0  0  0  0  0  0  0  0  0  0  0  0
   -3.3813   -0.8292   -2.1599 C   0  0  0  0  0  0  0  0  0  0  0  0
   -2.8633   -1.1160   -3.5645 C   0  0  0  0  0  0  0  0  0  0  0  0
   -4.6928   -1.5693   -1.9096 C   0  0  0  0  0  0  0  0  0  0  0  0
   -1.7154    1.0698    2.5707 C   0  0  0  0  0  0  0  0  0  0  0  0
   -3.0103    0.9643    3.0941 C   0  0  0  0  0  0  0  0  0  0  0  0
   -4.1234    1.0873    2.2630 C   0  0  0  0  0  0  0  0  0  0  0  0
   -3.9238    1.3130    0.8977 C   0  0  0  0  0  0  0  0  0  0  0  0
   -5.4549    0.9983    2.7117 N   0  0  0  0  0  0  0  0  0  0  0  0
   -5.8942    0.6617    3.9739 C   0  0  0  0  0  0  0  0  0  0  0  0
   -5.2195    0.4206    4.9642 O   0  0  0  0  0  0  0  0  0  0  0  0
   -7.3796    0.6223    4.1037 C   0  0  0  0  0  0  0  0  0  0  0  0
   -8.3044    0.1149    3.0225 C   0  0  0  0  0  0  0  0  0  0  0  0
   -8.0601   -0.7204    4.2426 C   0  0  0  0  0  0  0  0  0  0  0  0
    0.6407    3.4635    1.0315 H   0  0  0  0  0  0  0  0  0  0  0  0
    1.3469    5.6732    0.3426 H   0  0  0  0  0  0  0  0  0  0  0  0
    3.6646    6.0790   -0.4374 H   0  0  0  0  0  0  0  0  0  0  0  0
    5.2771    4.2261   -0.5141 H   0  0  0  0  0  0  0  0  0  0  0  0
    5.8069    2.0135   -0.5149 H   0  0  0  0  0  0  0  0  0  0  0  0
    4.5651    0.7879   -0.5177 H   0  0  0  0  0  0  0  0  0  0  0  0
    5.3034    1.3339    1.0348 H   0  0  0  0  0  0  0  0  0  0  0  0
   -0.5458   -1.8053    2.5241 H   0  0  0  0  0  0  0  0  0  0  0  0
    0.1881   -2.6790    1.1641 H   0  0  0  0  0  0  0  0  0  0  0  0
   -1.0190   -1.4476    0.8489 H   0  0  0  0  0  0  0  0  0  0  0  0
    4.5137   -2.9587    2.5544 H   0  0  0  0  0  0  0  0  0  0  0  0
   -4.2202    1.0774   -2.7069 H   0  0  0  0  0  0  0  0  0  0  0  0
   -2.6507   -1.1697   -1.4155 H   0  0  0  0  0  0  0  0  0  0  0  0
   -3.5692   -0.7693   -4.3291 H   0  0  0  0  0  0  0  0  0  0  0  0
   -1.9099   -0.6096   -3.7467 H   0  0  0  0  0  0  0  0  0  0  0  0
   -2.7007   -2.1886   -3.7083 H   0  0  0  0  0  0  0  0  0  0  0  0
   -4.5721   -2.6469   -2.0652 H   0  0  0  0  0  0  0  0  0  0  0  0
   -5.0375   -1.4108   -0.8817 H   0  0  0  0  0  0  0  0  0  0  0  0
   -5.4869   -1.2178   -2.5780 H   0  0  0  0  0  0  0  0  0  0  0  0
   -0.8686    1.0077    3.2501 H   0  0  0  0  0  0  0  0  0  0  0  0
   -3.1132    0.8107    4.1655 H   0  0  0  0  0  0  0  0  0  0  0  0
   -4.7764    1.4250    0.2306 H   0  0  0  0  0  0  0  0  0  0  0  0
   -6.1771    1.1907    2.0285 H   0  0  0  0  0  0  0  0  0  0  0  0
   -7.7614    1.4121    4.7464 H   0  0  0  0  0  0  0  0  0  0  0  0
   -7.9017   -0.2616    2.0880 H   0  0  0  0  0  0  0  0  0  0  0  0
   -9.2744    0.5917    2.9207 H   0  0  0  0  0  0  0  0  0  0  0  0
   -7.4617   -1.6153    4.1277 H   0  0  0  0  0  0  0  0  0  0  0  0
   -8.8525   -0.8091    4.9776 H   0  0  0  0  0  0  0  0  0  0  0  0
  1  2  2  0
  2  3  1  0
  3  4  2  0
  4  5  1  0
  5  6  1  0
  5  7  2  0
  7  8  1  0
  8  9  1  0
  9 10  2  0
 10 11  1  0
 11 12  1  0
 10 13  1  0
 13 14  2  0
 13 15  1  0
  8 16  1  0
 16 17  1  0
 17 18  1  0
 18 19  2  0
 19 20  1  0
 20 21  2  0
 20 22  2  0
 20 23  1  0
 23 24  1  0
 24 25  1  0
 24 26  1  0
 18 27  1  0
 27 28  2  0
 28 29  1  0
 29 30  2  0
 29 31  1  0
 31 32  1  0
 32 33  2  0
 32 34  1  0
 34 35  1  0
 35 36  1  0
  7  1  1  0
 16 11  2  0
 30 19  1  0
 36 34  1  0
  1 37  1  0
  2 38  1  0
  3 39  1  0
  4 40  1  0
  6 41  1  0
  6 42  1  0
  6 43  1  0
 12 44  1  0
 12 45  1  0
 12 46  1  0
 15 47  1  0
 23 48  1  0
 24 49  1  0
 25 50  1  0
 25 51  1  0
 25 52  1  0
 26 53  1  0
 26 54  1  0
 26 55  1  0
 27 56  1  0
 28 57  1  0
 30 58  1  0
 31 59  1  0
 34 60  1  0
 35 61  1  0
 35 62  1  0
 36 63  1  0
 36 64  1  0
M  END
>  <mol_id>  (50) 
V007-7729

>  <drugclip_rank>  (50) 
50

>  <conformer>  (50) 
29

>  <align_rmsd>  (50) 
0.639

$$$$
