V030-1754
     RDKit          3D

 36 39  0  0  0  0  0  0  0  0999 V2000
    2.8553    2.6910    0.8291 C   0  0  0  0  0  0  0  0  0  0  0  0
    3.0407    4.0476    0.5542 C   0  0  0  0  0  0  0  0  0  0  0  0
    2.1620    4.7087   -0.2898 C   0  0  0  0  0  0  0  0  0  0  0  0
    2.3275    6.0202   -0.5284 F   0  0  0  0  0  0  0  0  0  0  0  0
    1.1010    4.0313   -0.8703 C   0  0  0  0  0  0  0  0  0  0  0  0
    0.9021    2.6722   -0.5923 C   0  0  0  0  0  0  0  0  0  0  0  0
    1.7706    1.9964    0.2726 C   0  0  0  0  0  0  0  0  0  0  0  0
    1.5897    0.6223    0.6066 N   0  0  0  0  0  0  0  0  0  0  0  0
    2.5986   -0.0456    1.2248 N   0  0  0  0  0  0  0  0  0  0  0  0
    2.1984   -1.3235    1.3115 C   0  0  0  0  0  0  0  0  0  0  0  0
    3.0638   -2.3848    1.8483 C   0  0  0  0  0  0  0  0  0  0  0  0
    2.7767   -3.5811    1.8944 O   0  0  0  0  0  0  0  0  0  0  0  0
    4.2644   -1.9766    2.3144 O   0  0  0  0  0  0  0  0  0  0  0  0
    0.8652   -1.4689    0.8337 C   0  0  0  0  0  0  0  0  0  0  0  0
    0.0672   -2.7188    0.7898 C   0  0  0  0  0  0  0  0  0  0  0  0
    0.4766   -0.2041    0.4466 C   0  0  0  0  0  0  0  0  0  0  0  0
   -0.6998    0.2131   -0.0220 O   0  0  0  0  0  0  0  0  0  0  0  0
   -1.6827    0.7029    0.8112 C   0  0  0  0  0  0  0  0  0  0  0  0
   -2.9224    1.0603    0.2655 C   0  0  0  0  0  0  0  0  0  0  0  0
   -3.2284    0.9980   -1.4831 S   0  0  0  0  0  0  0  0  0  0  0  0
   -1.9878    1.0701   -2.2164 O   0  0  0  0  0  0  0  0  0  0  0  0
   -4.3003    1.9324   -1.7638 O   0  0  0  0  0  0  0  0  0  0  0  0
   -3.9117   -0.5199   -1.7015 N   0  0  0  0  0  0  0  0  0  0  0  0
   -3.0502   -1.7025   -1.8336 C   0  0  0  0  0  0  0  0  0  0  0  0
   -2.6842   -1.9346   -3.2975 C   0  0  0  0  0  0  0  0  0  0  0  0
   -3.8073   -2.9022   -1.2695 C   0  0  0  0  0  0  0  0  0  0  0  0
   -1.4828    0.8749    2.1850 C   0  0  0  0  0  0  0  0  0  0  0  0
   -2.4901    1.4119    2.9919 C   0  0  0  0  0  0  0  0  0  0  0  0
   -3.7276    1.7660    2.4537 C   0  0  0  0  0  0  0  0  0  0  0  0
   -3.9425    1.5770    1.0858 C   0  0  0  0  0  0  0  0  0  0  0  0
   -4.7835    2.2988    3.2228 N   0  0  0  0  0  0  0  0  0  0  0  0
   -4.7089    2.7072    4.5380 C   0  0  0  0  0  0  0  0  0  0  0  0
   -3.6871    2.8435    5.1996 O   0  0  0  0  0  0  0  0  0  0  0  0
   -6.0133    3.0196    5.1813 C   0  0  0  0  0  0  0  0  0  0  0  0
   -7.3793    2.6121    4.6819 C   0  0  0  0  0  0  0  0  0  0  0  0
   -6.7560    1.8701    5.8185 C   0  0  0  0  0  0  0  0  0  0  0  0
  1  2  2  0
  2  3  1  0
  3  4  1  0
  3  5  2  0
  5  6  1  0
  6  7  2  0
  7  8  1  0
  8  9  1  0
  9 10  2  0
 10 11  1  0
 11 12  2  0
 11 13  1  0
 10 14  1  0
 14 15  1  0
 14 16  2  0
 16 17  1  0
 17 18  1  0
 18 19  2  0
 19 20  1  0
 20 21  2  0
 20 22  2  0
 20 23  1  0
 23 24  1  0
 24 25  1  0
 24 26  1  0
 18 27  1  0
 27 28  2  0
 28 29  1  0
 29 30  2  0
 29 31  1  0
 31 32  1  0
 32 33  2  0
 32 34  1  0
 34 35  1  0
 35 36  1  0
  7  1  1  0
 16  8  1  0
 30 19  1  0
 36 34  1  0
M  END
>  <mol_id>  (1) 
V030-1754

>  <drugclip_rank>  (1) 
48

>  <conformer>  (1) 
39

>  <align_rmsd>  (1) 
0.881

$$$$
