7NFB_GEN_A601
     RDKit          3D

 30 32  0  0  0  0  0  0  0  0999 V2000
   27.0330  -11.1890    9.1680 C   0  0  0  0  0  0  0  0  0  0  0  0
   26.8870  -11.8180   10.3960 C   0  0  0  0  0  0  0  0  0  0  0  0
   27.8860  -11.7020   11.3130 O   0  0  0  0  0  0  0  0  0  0  0  0
   25.7470  -12.5550   10.7160 C   0  0  0  0  0  0  0  0  0  0  0  0
   24.7510  -12.6680    9.7520 C   0  0  0  0  0  0  0  0  0  0  0  0
   23.6580  -13.3800   10.0510 O   0  0  0  0  0  0  0  0  0  0  0  0
   24.8410  -12.0550    8.5080 C   0  0  0  0  0  0  0  0  0  0  0  0
   23.7850  -12.1940    7.4890 C   0  0  0  0  0  0  0  0  0  0  0  0
   22.7850  -12.8440    7.6840 O   0  0  0  0  0  0  0  0  0  0  0  0
   24.0540  -11.5220    6.2370 C   0  0  0  0  0  0  0  0  0  0  0  0
   25.1770  -10.7950    6.1300 C   0  0  0  0  0  0  0  0  0  0  0  0
   26.1790  -10.7110    7.0550 O   0  0  0  0  0  0  0  0  0  0  0  0
   25.9880  -11.3370    8.2490 C   0  0  0  0  0  0  0  0  0  0  0  0
   23.1040  -11.4550    5.1020 C   0  0  0  0  0  0  0  0  0  0  0  0
   23.6250  -11.2610    3.8190 C   0  0  0  0  0  0  0  0  0  0  0  0
   22.7800  -11.1380    2.7210 C   0  0  0  0  0  0  0  0  0  0  0  0
   21.4090  -11.2190    2.9200 C   0  0  0  0  0  0  0  0  0  0  0  0
   20.5810  -11.0930    1.8440 O   0  0  0  0  0  0  0  0  0  0  0  0
   20.8700  -11.4240    4.1930 C   0  0  0  0  0  0  0  0  0  0  0  0
   21.7220  -11.5300    5.2830 C   0  0  0  0  0  0  0  0  0  0  0  0
   27.7920  -10.6910    8.9650 H   0  0  0  0  0  0  0  0  0  0  0  0
   28.4590  -12.2800   11.0540 H   0  0  0  0  0  0  0  0  0  0  0  0
   25.6530  -12.9600   11.5480 H   0  0  0  0  0  0  0  0  0  0  0  0
   23.9360  -14.1810   10.0400 H   0  0  0  0  0  0  0  0  0  0  0  0
   25.4190  -10.2540    5.4130 H   0  0  0  0  0  0  0  0  0  0  0  0
   24.5440  -11.2120    3.6860 H   0  0  0  0  0  0  0  0  0  0  0  0
   23.1180  -11.0040    1.8650 H   0  0  0  0  0  0  0  0  0  0  0  0
   20.6130  -10.2470    1.6660 H   0  0  0  0  0  0  0  0  0  0  0  0
   19.9480  -11.4890    4.2990 H   0  0  0  0  0  0  0  0  0  0  0  0
   21.3650  -11.6500    6.1330 H   0  0  0  0  0  0  0  0  0  0  0  0
  2  1  2  0
  3  2  1  0
  4  2  1  0
  5  4  2  0
  6  5  1  0
  7  5  1  0
  8  7  1  0
  9  8  2  0
 10  8  1  0
 11 10  2  0
 12 11  1  0
 13  7  2  0
 13  1  1  0
 13 12  1  0
 14 10  1  0
 15 14  2  0
 16 15  1  0
 17 16  2  0
 18 17  1  0
 19 17  1  0
 20 19  2  0
 20 14  1  0
 21  1  1  0
 22  3  1  0
 23  4  1  0
 24  6  1  0
 25 11  1  0
 26 15  1  0
 27 16  1  0
 28 18  1  0
 29 19  1  0
 30 20  1  0
M  END
>  <_TriposChargeType>  (1) 
GASTEIGER

$$$$
