@<TRIPOS>MOLECULE
9EQG_ABU_E3205
 7 6 0 0 0
SMALL
GASTEIGER

@<TRIPOS>ATOM
      1 N         220.1830  187.6540  244.6870 N.3     1  UNL1       -0.1314
      2 C         220.9970  188.8540  244.7080 C.3     1  UNL1        0.1099
      3 C         222.4390  188.4600  244.9970 C.3     1  UNL1        0.0323
      4 C         223.3310  189.6950  245.0490 C.3     1  UNL1        0.1156
      5 C         224.7720  189.2640  245.3020 C.2     1  UNL1        0.3649
      6 O         225.1500  188.1020  245.0030 O.co2   1  UNL1       -0.2457
      7 O         225.5890  190.0670  245.8120 O.co2   1  UNL1       -0.2457
@<TRIPOS>BOND
     1     2     1    1
     2     3     2    1
     3     4     3    1
     4     5     4    1
     5     6     5   ar
     6     7     5   ar
