@<TRIPOS>MOLECULE
3K23_JZN_B2
 47 51 0 0 0
SMALL
GASTEIGER

@<TRIPOS>ATOM
      1 C          26.7080   10.2980   14.5410 C.3     1  UNL1        0.2525
      2 F          31.2760    7.5700   17.3490 F       1  UNL1       -0.2042
      3 N          29.9430    6.7640   11.5410 N.pl3   1  UNL1       -0.2346
      4 O          26.5110    8.9920   15.0760 O.3     1  UNL1       -0.4717
      5 C          27.7120    8.5940   15.6360 C.ar    1  UNL1        0.1348
      6 F          29.3350    3.0690   13.0380 F       1  UNL1       -0.1674
      7 N          32.4360    8.3850    8.0470 N.ar    1  UNL1       -0.2296
      8 O          27.9320    5.0910   12.1220 O.3     1  UNL1       -0.2150
      9 C          28.5110    9.5780   16.1710 C.ar    1  UNL1        0.0389
     10 F          30.4520    4.3640   11.7210 F       1  UNL1       -0.1674
     11 N          31.3710    7.7030    7.5830 N.ar    1  UNL1       -0.1635
     12 O          36.6670    6.3380    7.3600 O.2     1  UNL1       -0.2699
     13 C          29.7070    9.2370   16.7460 C.ar    1  UNL1        0.0327
     14 F          30.9290    4.3070   13.8800 F       1  UNL1       -0.1674
     15 N          37.6390    6.7810    5.3760 N.am    1  UNL1       -0.2694
     16 O          37.9730    8.7640    2.7780 O.2     1  UNL1       -0.2699
     17 C          30.0990    7.9190   16.7850 C.ar    1  UNL1        0.1400
     18 N          39.6770    7.4140    3.5210 N.am    1  UNL1       -0.0863
     19 C          29.2930    6.9450   16.2540 C.ar    1  UNL1        0.0283
     20 C          28.0850    7.2590   15.6670 C.ar    1  UNL1        0.0135
     21 C          27.2660    6.1170   15.1050 C.3     1  UNL1        0.0246
     22 C          26.5030    5.5340   16.2660 C.3     1  UNL1        0.0046
     23 C          26.2330    6.4950   14.0670 C.3     1  UNL1        0.0046
     24 C          28.1640    5.0360   14.5050 C.3     1  UNL1        0.0450
     25 C          28.8730    5.3160   13.1640 C.3     1  UNL1        0.2329
     26 C          29.5040    6.6900   12.9340 C.3     1  UNL1        0.1510
     27 C          31.0890    7.5180   11.1940 C.ar    1  UNL1        0.0681
     28 C          31.9840    8.1110   12.0620 C.ar    1  UNL1        0.0120
     29 C          33.0770    8.8250   11.6170 C.ar    1  UNL1       -0.0191
     30 C          33.9910    9.4290   12.6170 C.3     1  UNL1        0.0311
     31 C          33.3590    9.0030   10.2790 C.ar    1  UNL1        0.0150
     32 C          32.4740    8.4130    9.4160 C.ar    1  UNL1        0.0852
     33 C          30.7360    7.2700    8.6690 C.ar    1  UNL1        0.1233
     34 C          31.3780    7.6920    9.8520 C.ar    1  UNL1        0.0534
     35 C          33.4880    8.6150    7.1450 C.ar    1  UNL1        0.0829
     36 C          33.4410    9.6610    6.2540 C.ar    1  UNL1        0.0192
     37 C          34.4800    9.8550    5.3660 C.ar    1  UNL1        0.0017
     38 C          35.5700    9.0150    5.3460 C.ar    1  UNL1        0.0046
     39 C          35.5960    7.9740    6.2390 C.ar    1  UNL1        0.0551
     40 C          34.5630    7.7680    7.1360 C.ar    1  UNL1        0.0237
     41 C          36.6830    6.9980    6.3350 C.2     1  UNL1        0.2494
     42 C          38.4900    5.6470    5.6930 C.3     1  UNL1        0.0942
     43 C          38.8620    4.9470    4.4160 C.3     1  UNL1        0.0237
     44 C          37.8880    5.4930    3.4090 C.3     1  UNL1        0.0311
     45 C          37.4120    6.8040    3.9640 C.3     1  UNL1        0.1554
     46 C          38.3670    7.7770    3.3710 C.2     1  UNL1        0.2788
     47 C          29.8650    4.1890   13.0690 C.3     1  UNL1        0.4243
@<TRIPOS>BOND
     1     4     1    1
     2     5     4    1
     3     9     5   ar
     4    11     7   ar
     5    13     9   ar
     6    17    13   ar
     7    17     2    1
     8    19    17   ar
     9    20    19   ar
    10    20     5   ar
    11    21    20    1
    12    21    22    1
    13    23    21    1
    14    24    21    1
    15    25    24    1
    16    25     8    1
    17    26    25    1
    18    26     3    1
    19    27     3    1
    20    28    27   ar
    21    29    28   ar
    22    30    29    1
    23    31    29   ar
    24    32     7   ar
    25    32    31   ar
    26    33    11   ar
    27    34    33   ar
    28    34    32   ar
    29    34    27   ar
    30    35     7    1
    31    36    35   ar
    32    37    36   ar
    33    38    37   ar
    34    39    38   ar
    35    40    39   ar
    36    40    35   ar
    37    41    15   am
    38    41    39    1
    39    41    12    2
    40    42    15    1
    41    43    42    1
    42    44    43    1
    43    45    44    1
    44    45    15    1
    45    45    46    1
    46    46    16    2
    47    46    18   am
    48    47    25    1
    49    47    14    1
    50    47    10    1
    51    47     6    1
