@<TRIPOS>MOLECULE
4LSJ_LSJ_A801
 31 34 0 0 0
SMALL
GASTEIGER

@<TRIPOS>ATOM
      1 C          36.6140   11.6620   11.2560 C.3     1  UNL1        0.2321
      2 O          37.1250   12.4650   10.2230 O.3     1  UNL1       -0.4706
      3 C          36.5650   12.3170    8.9670 C.ar    1  UNL1        0.1389
      4 C          35.4710   11.5650    8.6360 C.ar    1  UNL1        0.0338
      5 C          35.0460   11.5430    7.3450 C.ar    1  UNL1        0.0030
      6 C          35.6800   12.2210    6.3470 C.ar    1  UNL1        0.0002
      7 C          36.7740   12.9620    6.6650 C.ar    1  UNL1        0.0031
      8 C          37.1940   12.9950    7.9630 C.ar    1  UNL1        0.0369
      9 C          34.7020   10.8590    9.6010 C.2     1  UNL1        0.0017
     10 C          34.4020    9.5560    9.4970 C.2     1  UNL1       -0.0219
     11 C          33.5600    8.8770   10.4530 C.ar    1  UNL1       -0.0026
     12 C          33.7120    8.8390   11.8070 C.ar    1  UNL1       -0.0002
     13 C          32.8280    8.1610   12.6080 C.ar    1  UNL1        0.0014
     14 C          31.7620    7.4830   12.0950 C.ar    1  UNL1        0.0180
     15 C          31.6110    7.5270   10.7360 C.ar    1  UNL1        0.0906
     16 C          32.4900    8.2070    9.9550 C.ar    1  UNL1        0.0177
     17 N          30.6000    6.8800   10.0110 N.pl3   1  UNL1       -0.1006
     18 S          28.9990    6.7770   10.4490 S.O2    1  UNL1        0.0750
     19 O          28.3020    6.0620    9.4820 O.2     1  UNL1       -0.1528
     20 O          28.8530    6.3890   11.7850 O.2     1  UNL1       -0.1528
     21 C          28.5710    8.4390   10.2820 C.3     1  UNL1        0.2016
     22 C          34.8070    8.7100    8.3650 C.3     1  UNL1        0.0264
     23 C          35.2940    7.3570    8.7800 C.3     1  UNL1        0.0050
     24 C          34.2220   11.6050   10.7350 C.ar    1  UNL1        0.0333
     25 C          35.2060   12.0170   11.5910 C.ar    1  UNL1        0.0241
     26 C          34.8470   12.7190   12.7070 C.ar    1  UNL1       -0.0005
     27 C          33.5360   13.0130   12.9650 C.ar    1  UNL1        0.0029
     28 C          32.5710   12.6060   12.0990 C.ar    1  UNL1        0.0369
     29 C          32.9040   11.8990   10.9790 C.ar    1  UNL1        0.1384
     30 O          31.9510   11.5080   10.0940 O.3     1  UNL1       -0.4714
     31 C          30.7240   11.4640   10.7170 C.3     1  UNL1        0.2525
@<TRIPOS>BOND
     1     2     1    1
     2     3     2    1
     3     4     3   ar
     4     5     4   ar
     5     6     5   ar
     6     7     6   ar
     7     8     7   ar
     8     8     3   ar
     9     9     4    1
    10    10     9    2
    11    11    10    1
    12    12    11   ar
    13    13    12   ar
    14    14    13   ar
    15    15    14   ar
    16    16    15   ar
    17    16    11   ar
    18    17    15    1
    19    18    17    1
    20    19    18    2
    21    20    18    2
    22    18    21    1
    23    22    10    1
    24    23    22    1
    25    24     9    1
    26    25    24   ar
    27    25     1    1
    28    26    25   ar
    29    27    26   ar
    30    28    27   ar
    31    29    28   ar
    32    29    24   ar
    33    30    29    1
    34    31    30    1
