@<TRIPOS>MOLECULE
4MDD_29M_B801
 36 39 0 0 0
SMALL
GASTEIGER

@<TRIPOS>ATOM
      1 C          27.7650    9.5720   14.4530 C.ar    1  UNL1       -0.0211
      2 F          34.6270    9.2120   10.4130 F       1  UNL1       -0.2041
      3 N          28.2090    5.8250   12.9240 N.ar    1  UNL1       -0.2469
      4 O          30.4130    7.0800    9.6740 O.3     1  UNL1       -0.4714
      5 S          25.4770    5.6730   15.9020 S.O2    1  UNL1        0.0751
      6 C          26.7140    8.7020   14.6670 C.ar    1  UNL1        0.0153
      7 N          30.0170    3.4810   12.3640 N.3     1  UNL1       -0.2626
      8 O          24.2880    4.8460   15.7790 O.2     1  UNL1       -0.1528
      9 C          26.7570    7.3940   14.2220 C.ar    1  UNL1        0.1078
     10 N          25.6320    6.5300   14.4260 N.pl3   1  UNL1       -0.0991
     11 O          26.7510    5.0940   16.2770 O.2     1  UNL1       -0.1528
     12 C          27.8810    7.0140   13.5130 C.ar    1  UNL1        0.0976
     13 C          29.4230    5.8970   12.2930 C.ar    1  UNL1        0.0753
     14 C          29.9070    7.1760   12.4780 C.ar    1  UNL1        0.0193
     15 C          28.9380    7.8740   13.2550 C.ar    1  UNL1        0.0199
     16 C          28.8800    9.1680   13.7460 C.ar    1  UNL1       -0.0027
     17 C          31.1410    7.6870   11.8990 C.ar    1  UNL1        0.0354
     18 C          32.0760    8.2670   12.7450 C.ar    1  UNL1        0.0054
     19 C          33.2600    8.7910   12.2650 C.ar    1  UNL1        0.0298
     20 C          33.4830    8.7290   10.9060 C.ar    1  UNL1        0.1432
     21 C          32.5630    8.1750   10.0370 C.ar    1  UNL1        0.0665
     22 C          31.3800    7.6510   10.5270 C.ar    1  UNL1        0.1409
     23 C          30.7610    7.1560    8.2980 C.3     1  UNL1        0.2525
     24 C          30.0010    4.7360   11.5850 C.3     1  UNL1        0.1189
     25 C          30.4790    2.3610   11.5010 C.3     1  UNL1        0.0902
     26 C          30.7540    3.5960   13.6520 C.3     1  UNL1        0.0995
     27 C          30.3360    2.5660   14.6390 C.ar    1  UNL1       -0.0061
     28 C          28.9960    2.3310   14.8870 C.ar    1  UNL1       -0.0029
     29 C          28.6300    1.3620   15.8010 C.ar    1  UNL1       -0.0003
     30 C          29.5990    0.6320   16.4640 C.ar    1  UNL1       -0.0000
     31 C          30.9370    0.8730   16.2210 C.ar    1  UNL1       -0.0003
     32 C          31.3060    1.8390   15.3060 C.ar    1  UNL1       -0.0029
     33 C          25.1240    6.9420   17.0710 C.3     1  UNL1        0.2016
     34 C          27.7640   10.9810   14.9680 C.3     1  UNL1        0.0224
     35 C          26.6470   11.8430   14.4270 C.3     1  UNL1        0.0047
     36 C          27.8790   11.0420   16.4750 C.3     1  UNL1        0.0047
@<TRIPOS>BOND
     1     6     1   ar
     2     8     5    2
     3     9     6   ar
     4    10     9    1
     5    10     5    1
     6    11     5    2
     7    12     9   ar
     8    12     3   ar
     9    13     3   ar
    10    14    13   ar
    11    15    14   ar
    12    15    12   ar
    13    16    15   ar
    14    16     1   ar
    15    17    14    1
    16    18    17   ar
    17    19    18   ar
    18    20     2    1
    19    20    19   ar
    20    21    20   ar
    21    22    21   ar
    22    22     4    1
    23    22    17   ar
    24    23     4    1
    25    24     7    1
    26    24    13    1
    27    25     7    1
    28    26     7    1
    29    27    26    1
    30    28    27   ar
    31    29    28   ar
    32    30    29   ar
    33    31    30   ar
    34    32    31   ar
    35    32    27   ar
    36     5    33    1
    37    34     1    1
    38    34    35    1
    39    36    34    1
