@<TRIPOS>MOLECULE
4P6W_MOF_A801
 35 39 0 0 0
SMALL
GASTEIGER

@<TRIPOS>ATOM
      1 O          32.2210    8.8320    7.5550 O.2     1  UNL1       -0.2866
      2 C          32.0610    8.0590    8.5230 C.2     1  UNL1        0.1948
      3 C          31.0030    7.1520    8.5270 C.2     1  UNL1        0.0378
      4 C          32.8410    8.2490    9.6460 C.2     1  UNL1        0.0339
      5 C          32.6690    7.4550   10.7610 C.2     1  UNL1       -0.0367
      6 C          33.5510    7.7120   11.9640 C.3     1  UNL1        0.0225
      7 C          31.5840    6.4160   10.8450 C.3     1  UNL1        0.0490
      8 C          30.7640    6.3540    9.6380 C.2     1  UNL1       -0.0185
      9 C          32.3240    5.0710   10.9580 C.3     1  UNL1        0.0097
     10 C          30.6790    6.8660   12.0160 C.3     1  UNL1        0.1016
     11 CL         30.0570    8.5300   11.6410 Cl      1  UNL1       -0.1130
     12 C          29.3640    6.0790   12.1750 C.3     1  UNL1        0.1664
     13 O          29.5150    4.6540   12.1600 O.3     1  UNL1       -0.2219
     14 C          31.5190    6.9690   13.3090 C.3     1  UNL1        0.0174
     15 C          32.6590    7.9750   13.1710 C.3     1  UNL1        0.0056
     16 C          30.6350    7.4230   14.4640 C.3     1  UNL1        0.0051
     17 C          31.2610    7.6320   15.8340 C.3     1  UNL1        0.0041
     18 C          30.0470    7.6230   16.7570 C.3     1  UNL1        0.0437
     19 C          30.1550    8.8900   17.6000 C.3     1  UNL1        0.0040
     20 C          29.4280    6.5340   14.7080 C.3     1  UNL1        0.0427
     21 C          28.5870    6.5000   13.4240 C.3     1  UNL1        0.0379
     22 C          29.7850    5.1180   15.2060 C.3     1  UNL1        0.0040
     23 C          28.8040    7.3340   15.8610 C.3     1  UNL1        0.1875
     24 C          27.7060    6.5030   16.4990 C.2     1  UNL1        0.2028
     25 O          27.9580    5.8670   17.6300 O.2     1  UNL1       -0.2911
     26 C          26.3050    6.3040   15.9530 C.3     1  UNL1        0.1626
     27 CL         25.7700    4.5310   15.9420 Cl      1  UNL1       -0.1051
     28 O          28.2470    8.5430   15.2900 O.3     1  UNL1       -0.4434
     29 C          27.3060    9.5430   15.8350 C.2     1  UNL1        0.3765
     30 O          26.6690    9.4240   16.8820 O.2     1  UNL1       -0.2414
     31 C          27.0990   10.7880   15.0980 C.ar    1  UNL1        0.2206
     32 C          27.5920   11.2670   13.9200 C.ar    1  UNL1        0.0475
     33 C          26.9840   12.4930   13.7880 C.ar    1  UNL1        0.0440
     34 C          26.1730   12.7170   14.8800 C.ar    1  UNL1        0.1799
     35 O          26.2360   11.6350   15.7120 O.2     1  UNL1       -0.4439
@<TRIPOS>BOND
     1     2     1    2
     2     3     2    1
     3     4     2    1
     4     5     4    2
     5     6     5    1
     6     7     5    1
     7     8     7    1
     8     8     3    2
     9     7     9    1
    10    10     7    1
    11    10    11    1
    12    12    10    1
    13    12    13    1
    14    14    10    1
    15    14    15    1
    16    15     6    1
    17    16    14    1
    18    16    17    1
    19    18    17    1
    20    18    19    1
    21    20    16    1
    22    21    20    1
    23    21    12    1
    24    20    22    1
    25    23    20    1
    26    23    18    1
    27    24    23    1
    28    25    24    2
    29    26    24    1
    30    27    26    1
    31    23    28    1
    32    29    28    1
    33    30    29    2
    34    31    29    1
    35    32    31   ar
    36    33    32   ar
    37    34    33   ar
    38    35    31   ar
    39    35    34   ar
