@<TRIPOS>MOLECULE
5G5W_R8C_A1778
 33 36 0 0 0
SMALL
GASTEIGER

@<TRIPOS>ATOM
      1 C          30.3620    3.8280   13.6610 C.3     1  UNL1        0.0276
      2 C          30.0280    5.2460   14.1240 C.3     1  UNL1        0.1397
      3 C          30.0050    6.2450   12.9570 C.3     1  UNL1        0.2078
      4 C          29.6130    7.6430   13.3820 C.ar    1  UNL1        0.0189
      5 C          30.5460    8.5030   13.9680 C.ar    1  UNL1       -0.0008
      6 C          30.1770    9.7860   14.3740 C.ar    1  UNL1       -0.0002
      7 C          28.8770   10.2200   14.1570 C.ar    1  UNL1       -0.0000
      8 C          27.9510    9.3830   13.5330 C.ar    1  UNL1       -0.0002
      9 C          28.3060    8.0820   13.1660 C.ar    1  UNL1       -0.0008
     10 O          31.3190    6.2970   12.3920 O.3     1  UNL1       -0.4730
     11 C          31.5480    6.8380   11.1660 C.ar    1  UNL1        0.1391
     12 C          32.7640    7.5230   10.9780 C.ar    1  UNL1        0.0385
     13 C          33.0990    8.0070    9.7460 C.ar    1  UNL1        0.0223
     14 C          32.2390    7.7940    8.6550 C.ar    1  UNL1        0.0845
     15 C          31.0150    7.1030    8.8410 C.ar    1  UNL1        0.0416
     16 C          30.6790    6.6050   10.1100 C.ar    1  UNL1        0.0400
     17 C          30.3520    7.0790    7.5490 C.ar    1  UNL1        0.1221
     18 N          31.1200    7.6880    6.6880 N.ar    1  UNL1       -0.1635
     19 N          32.2680    8.1630    7.3200 N.ar    1  UNL1       -0.2296
     20 C          33.3050    8.8250    6.6460 C.ar    1  UNL1        0.0829
     21 C          32.9900    9.8460    5.7420 C.ar    1  UNL1        0.0215
     22 C          33.9970   10.4740    5.0140 C.ar    1  UNL1        0.0312
     23 C          35.3070   10.0550    5.1960 C.ar    1  UNL1        0.1402
     24 C          35.6330    9.0240    6.0830 C.ar    1  UNL1        0.0312
     25 C          34.6330    8.3910    6.8040 C.ar    1  UNL1        0.0215
     26 F          36.2920   10.6590    4.5100 F       1  UNL1       -0.2042
     27 N          28.7260    5.2520   14.7950 N.am    1  UNL1       -0.1960
     28 C          28.5630    5.7570   16.0360 C.2     1  UNL1        0.3368
     29 O          29.4960    6.2370   16.6800 O.2     1  UNL1       -0.2642
     30 C          27.1680    5.7830   16.6310 C.3     1  UNL1        0.4711
     31 F          27.1870    5.1990   17.8760 F       1  UNL1       -0.1620
     32 F          26.7840    7.1120   16.7520 F       1  UNL1       -0.1620
     33 F          26.2130    5.1270   15.8670 F       1  UNL1       -0.1620
@<TRIPOS>BOND
     1     2     1    1
     2     3     2    1
     3     4     3    1
     4     5     4   ar
     5     6     5   ar
     6     7     6   ar
     7     8     7   ar
     8     9     8   ar
     9     9     4   ar
    10     3    10    1
    11    11    10    1
    12    12    11   ar
    13    13    12   ar
    14    14    13   ar
    15    15    14   ar
    16    16    15   ar
    17    16    11   ar
    18    17    15   ar
    19    18    17   ar
    20    19    18   ar
    21    19    14   ar
    22    20    19    1
    23    21    20   ar
    24    22    21   ar
    25    23    22   ar
    26    24    23   ar
    27    25    24   ar
    28    25    20   ar
    29    26    23    1
    30    27     2    1
    31    28    27   am
    32    29    28    2
    33    30    28    1
    34    30    31    1
    35    32    30    1
    36    33    30    1
