@<TRIPOS>MOLECULE
8A9G_QJK_A302
 35 38 0 0 0
SMALL
GASTEIGER

@<TRIPOS>ATOM
      1 C          23.8000    8.7220   13.5550 C.2     1  UNL1        0.3909
      2 O          29.7560    6.4720   10.6550 O.co2   1  UNL1       -0.5760
      3 C          25.5550    1.1590    6.8370 C.ar    1  UNL1        0.0040
      4 C          26.2940    0.0160    7.0930 C.ar    1  UNL1        0.0115
      5 C          26.1090   -0.6740    8.2850 C.ar    1  UNL1        0.0577
      6 C          25.1860   -0.2320    9.2230 C.ar    1  UNL1        0.0115
      7 C          24.4460    0.9070    8.9620 C.ar    1  UNL1        0.0040
      8 C          24.6410    1.6360    7.7840 C.ar    1  UNL1        0.0389
      9 C          23.8370    2.8490    7.4780 C.2     1  UNL1        0.1967
     10 C          27.9660    4.9640   10.4350 C.ar    1  UNL1        0.2900
     11 C          27.4410    3.8250   11.0300 C.ar    1  UNL1        0.0750
     12 C          26.0990    3.5160   10.8550 C.ar    1  UNL1        0.0040
     13 C          25.2880    4.3360   10.0770 C.ar    1  UNL1        0.0008
     14 C          22.9200    4.6420   12.9520 C.ar    1  UNL1        0.0182
     15 C          23.5180    7.2990   13.3620 C.ar    1  UNL1        0.1198
     16 C          22.0870    5.4060    9.5920 C.2     1  UNL1        0.2922
     17 C          23.8230    3.9880    9.9320 C.3     1  UNL1        0.1315
     18 C          23.3380    3.7750    8.5100 C.2     1  UNL1        0.0827
     19 C          22.3020    4.6380    8.3460 C.2     1  UNL1        0.2500
     20 O          23.1940    9.3550   14.3930 O.co2   1  UNL1       -0.2404
     21 O          24.7340    9.3210   12.7900 O.co2   1  UNL1       -0.2404
     22 N          29.3940    5.3080   10.6440 N.pl3   1  UNL1        0.0809
     23 O          30.2110    4.4220   10.8110 O.2     1  UNL1        0.0415
     24 O          21.5640    4.7720    7.2170 O.2     1  UNL1       -0.2819
     25 CL         27.0340   -2.1080    8.6020 Cl      1  UNL1       -0.0822
     26 O          23.5660    3.0900    6.3160 O.2     1  UNL1       -0.2867
     27 C          25.8090    5.4860    9.4990 C.ar    1  UNL1        0.0040
     28 C          27.1500    5.8040    9.6900 C.ar    1  UNL1        0.0750
     29 O          23.4610    6.9160   15.7300 O.3     1  UNL1       -0.2863
     30 C          23.0390    5.1040   14.2500 C.ar    1  UNL1        0.0435
     31 C          23.3310    6.4440   14.4630 C.ar    1  UNL1        0.2021
     32 C          23.3800    6.8230   12.0560 C.ar    1  UNL1        0.0247
     33 C          23.0620    5.4940   11.8530 C.ar    1  UNL1        0.0552
     34 O          21.1940    6.2170    9.7510 O.2     1  UNL1       -0.2660
     35 N          22.9560    5.0040   10.5410 N.am    1  UNL1       -0.2462
@<TRIPOS>UNITY_ATOM_ATTR
2 1
charge -1
22 1
charge 1
@<TRIPOS>BOND
     1     4     3   ar
     2     5     4   ar
     3     6     5   ar
     4     7     6   ar
     5     8     7   ar
     6     8     3   ar
     7     9     8    1
     8    11    10   ar
     9    12    11   ar
    10    13    12   ar
    11    15     1    1
    12    17    13    1
    13    18    17    1
    14    18     9    1
    15    19    18    2
    16    19    16    1
    17    20     1   ar
    18    21     1   ar
    19    22    10    1
    20    22     2    1
    21    23    22    2
    22    24    19    1
    23    25     5    1
    24    26     9    2
    25    27    13   ar
    26    28    27   ar
    27    28    10   ar
    28    30    14   ar
    29    31    30   ar
    30    31    29    1
    31    31    15   ar
    32    32    15   ar
    33    33    14   ar
    34    33    32   ar
    35    34    16    2
    36    35    17    1
    37    35    16   am
    38    35    33    1
