Z52665462
     RDKit          3D

 52 55  0  0  0  0  0  0  0  0999 V2000
    7.5589   -0.9776   -2.6430 C   0  0  0  0  0  0  0  0  0  0  0  0
    7.4213   -0.7451   -1.1503 C   0  0  0  0  0  0  0  0  0  0  0  0
    6.2164   -0.0153   -0.8752 O   0  0  0  0  0  0  0  0  0  0  0  0
    5.0886   -0.7627   -0.7021 C   0  0  0  0  0  0  0  0  0  0  0  0
    5.0566   -1.9856   -0.7806 O   0  0  0  0  0  0  0  0  0  0  0  0
    3.9109    0.0403   -0.4296 C   0  0  0  0  0  0  0  0  0  0  0  0
    3.7827    1.4161   -0.5547 C   0  0  0  0  0  0  0  0  0  0  0  0
    2.5144    1.8060   -0.2479 O   0  0  0  0  0  0  0  0  0  0  0  0
    4.7006    2.5052   -0.9574 C   0  0  0  0  0  0  0  0  0  0  0  0
    2.6265   -0.4235    0.0028 C   0  0  0  0  0  0  0  0  0  0  0  0
    1.8094    0.6911    0.0825 C   0  0  0  0  0  0  0  0  0  0  0  0
    2.0329   -1.6400    0.3467 C   0  0  0  0  0  0  0  0  0  0  0  0
    2.7003   -2.8507    0.3764 N   0  0  0  0  0  0  0  0  0  0  0  0
    0.7303   -1.6505    0.6847 N   0  0  0  0  0  0  0  0  0  0  0  0
    0.0315   -0.4897    0.7060 C   0  0  0  0  0  0  0  0  0  0  0  0
    0.5180    0.7328    0.4260 N   0  0  0  0  0  0  0  0  0  0  0  0
   -1.4449   -0.5753    1.0821 C   0  0  0  0  0  0  0  0  0  0  0  0
   -2.3457   -1.0180   -0.0087 N   0  0  0  0  0  0  0  0  0  0  0  0
   -3.6642   -1.4005    0.5552 C   0  0  0  0  0  0  0  0  0  0  0  0
   -4.8430   -1.2134   -0.4239 C   0  0  0  0  0  0  0  0  0  0  0  0
   -4.9581    0.1977   -0.8082 N   0  0  0  0  0  0  0  0  0  0  0  0
   -3.7005    0.9519   -0.9107 C   0  0  0  0  0  0  0  0  0  0  0  0
   -2.4939    0.0003   -1.0763 C   0  0  0  0  0  0  0  0  0  0  0  0
   -6.0445    0.9242   -0.3480 C   0  0  0  0  0  0  0  0  0  0  0  0
   -7.0982    0.2764    0.1791 N   0  0  0  0  0  0  0  0  0  0  0  0
   -8.1463    1.0098    0.6005 C   0  0  0  0  0  0  0  0  0  0  0  0
   -8.1969    2.3757    0.5187 C   0  0  0  0  0  0  0  0  0  0  0  0
   -7.0875    2.9596   -0.0328 C   0  0  0  0  0  0  0  0  0  0  0  0
   -6.0171    2.2646   -0.4650 N   0  0  0  0  0  0  0  0  0  0  0  0
    6.7271   -1.5758   -3.0270 H   0  0  0  0  0  0  0  0  0  0  0  0
    7.5399   -0.0248   -3.1823 H   0  0  0  0  0  0  0  0  0  0  0  0
    8.4960   -1.4933   -2.8711 H   0  0  0  0  0  0  0  0  0  0  0  0
    7.4568   -1.6868   -0.5908 H   0  0  0  0  0  0  0  0  0  0  0  0
    8.2546   -0.1296   -0.7954 H   0  0  0  0  0  0  0  0  0  0  0  0
    5.5197    2.6022   -0.2381 H   0  0  0  0  0  0  0  0  0  0  0  0
    4.1798    3.4673   -1.0048 H   0  0  0  0  0  0  0  0  0  0  0  0
    5.1238    2.3053   -1.9466 H   0  0  0  0  0  0  0  0  0  0  0  0
    2.0702   -3.6411    0.3293 H   0  0  0  0  0  0  0  0  0  0  0  0
    3.5595   -2.9070   -0.1678 H   0  0  0  0  0  0  0  0  0  0  0  0
   -1.5037   -1.2947    1.9103 H   0  0  0  0  0  0  0  0  0  0  0  0
   -1.7707    0.3922    1.4862 H   0  0  0  0  0  0  0  0  0  0  0  0
   -3.8847   -0.8096    1.4552 H   0  0  0  0  0  0  0  0  0  0  0  0
   -3.6144   -2.4515    0.8624 H   0  0  0  0  0  0  0  0  0  0  0  0
   -5.7510   -1.6289    0.0262 H   0  0  0  0  0  0  0  0  0  0  0  0
   -4.6639   -1.8061   -1.3300 H   0  0  0  0  0  0  0  0  0  0  0  0
   -3.7413    1.6242   -1.7767 H   0  0  0  0  0  0  0  0  0  0  0  0
   -3.5350    1.5610   -0.0113 H   0  0  0  0  0  0  0  0  0  0  0  0
   -1.5818    0.5900   -1.2109 H   0  0  0  0  0  0  0  0  0  0  0  0
   -2.6198   -0.5464   -2.0202 H   0  0  0  0  0  0  0  0  0  0  0  0
   -8.9705    0.4396    1.0184 H   0  0  0  0  0  0  0  0  0  0  0  0
   -9.0466    2.9479    0.8607 H   0  0  0  0  0  0  0  0  0  0  0  0
   -7.0177    4.0363   -0.1521 H   0  0  0  0  0  0  0  0  0  0  0  0
  1  2  1  0
  2  3  1  0
  3  4  1  0
  4  5  2  0
  4  6  1  0
  6  7  2  0
  7  8  1  0
  7  9  1  0
  6 10  1  0
 10 11  2  0
 10 12  1  0
 12 13  1  0
 12 14  2  0
 14 15  1  0
 15 16  2  0
 15 17  1  0
 17 18  1  0
 18 19  1  0
 19 20  1  0
 20 21  1  0
 21 22  1  0
 22 23  1  0
 21 24  1  0
 24 25  2  0
 25 26  1  0
 26 27  2  0
 27 28  1  0
 28 29  2  0
 11  8  1  0
 16 11  1  0
 23 18  1  0
 29 24  1  0
  1 30  1  0
  1 31  1  0
  1 32  1  0
  2 33  1  0
  2 34  1  0
  9 35  1  0
  9 36  1  0
  9 37  1  0
 13 38  1  0
 13 39  1  0
 17 40  1  0
 17 41  1  0
 19 42  1  0
 19 43  1  0
 20 44  1  0
 20 45  1  0
 22 46  1  0
 22 47  1  0
 23 48  1  0
 23 49  1  0
 26 50  1  0
 27 51  1  0
 28 52  1  0
M  END
>  <mol_id>  (1) 
Z52665462

>  <drugclip_rank>  (1) 
1

>  <conformer>  (1) 
30

>  <align_rmsd>  (1) 
0.811

$$$$
STL121594
     RDKit          3D

 54 57  0  0  0  0  0  0  0  0999 V2000
   -4.9662   -0.4279    2.8521 C   0  0  0  0  0  0  0  0  0  0  0  0
   -6.0878    0.5658    3.1346 C   0  0  0  0  0  0  0  0  0  0  0  0
   -5.9931    1.5232    1.9609 C   0  0  0  0  0  0  0  0  0  0  0  0
   -4.4887    1.6547    1.7495 C   0  0  0  0  0  0  0  0  0  0  0  0
   -3.9525    0.3647    2.1551 N   0  0  0  0  0  0  0  0  0  0  0  0
   -2.7024   -0.1356    1.8954 C   0  0  0  0  0  0  0  0  0  0  0  0
   -2.3825   -1.3514    2.2026 N   0  0  0  0  0  0  0  0  0  0  0  0
   -1.7907    0.6928    1.3008 N   0  0  0  0  0  0  0  0  0  0  0  0
   -0.5003    0.3453    0.9908 C   0  0  0  0  0  0  0  0  0  0  0  0
    0.2517    1.1708    0.4882 O   0  0  0  0  0  0  0  0  0  0  0  0
   -0.1142   -1.0418    1.3037 C   0  0  0  0  0  0  0  0  0  0  0  0
   -1.0972   -1.8165    1.9102 C   0  0  0  0  0  0  0  0  0  0  0  0
    1.1454   -1.6116    1.0470 C   0  0  0  0  0  0  0  0  0  0  0  0
    1.3414   -2.9485    1.4279 C   0  0  0  0  0  0  0  0  0  0  0  0
    0.3056   -3.6421    2.0278 C   0  0  0  0  0  0  0  0  0  0  0  0
   -0.9032   -3.1056    2.2738 N   0  0  0  0  0  0  0  0  0  0  0  0
    2.2613   -0.9059    0.4050 C   0  0  0  0  0  0  0  0  0  0  0  0
    3.3556   -0.4612    1.1596 C   0  0  0  0  0  0  0  0  0  0  0  0
    4.4314    0.1834    0.5425 C   0  0  0  0  0  0  0  0  0  0  0  0
    4.4345    0.4024   -0.8360 C   0  0  0  0  0  0  0  0  0  0  0  0
    3.3570   -0.0453   -1.5987 C   0  0  0  0  0  0  0  0  0  0  0  0
    2.2814   -0.6971   -0.9824 C   0  0  0  0  0  0  0  0  0  0  0  0
    5.5437    1.0454   -1.3118 O   0  0  0  0  0  0  0  0  0  0  0  0
    5.4883    1.5119   -2.6618 C   0  0  0  0  0  0  0  0  0  0  0  0
    6.7583    2.3216   -2.9239 C   0  0  0  0  0  0  0  0  0  0  0  0
    6.7757    3.0260   -4.2903 C   0  0  0  0  0  0  0  0  0  0  0  0
    8.0319    3.8922   -4.4109 C   0  0  0  0  0  0  0  0  0  0  0  0
    6.7123    2.0400   -5.4577 C   0  0  0  0  0  0  0  0  0  0  0  0
   -4.5849   -0.8561    3.7853 H   0  0  0  0  0  0  0  0  0  0  0  0
   -5.3179   -1.2381    2.2027 H   0  0  0  0  0  0  0  0  0  0  0  0
   -5.8901    1.1014    4.0708 H   0  0  0  0  0  0  0  0  0  0  0  0
   -7.0656    0.0831    3.2150 H   0  0  0  0  0  0  0  0  0  0  0  0
   -6.4745    2.4858    2.1545 H   0  0  0  0  0  0  0  0  0  0  0  0
   -6.4606    1.0761    1.0752 H   0  0  0  0  0  0  0  0  0  0  0  0
   -4.2675    1.8885    0.7031 H   0  0  0  0  0  0  0  0  0  0  0  0
   -4.0748    2.4441    2.3869 H   0  0  0  0  0  0  0  0  0  0  0  0
   -2.0364    1.6453    1.0946 H   0  0  0  0  0  0  0  0  0  0  0  0
    2.2916   -3.4461    1.2535 H   0  0  0  0  0  0  0  0  0  0  0  0
    0.4248   -4.6778    2.3334 H   0  0  0  0  0  0  0  0  0  0  0  0
    3.3765   -0.6069    2.2373 H   0  0  0  0  0  0  0  0  0  0  0  0
    5.2693    0.5275    1.1439 H   0  0  0  0  0  0  0  0  0  0  0  0
    3.3192    0.0934   -2.6736 H   0  0  0  0  0  0  0  0  0  0  0  0
    1.4489   -1.0338   -1.5969 H   0  0  0  0  0  0  0  0  0  0  0  0
    4.6099    2.1526   -2.8045 H   0  0  0  0  0  0  0  0  0  0  0  0
    5.4467    0.6548   -3.3423 H   0  0  0  0  0  0  0  0  0  0  0  0
    7.6303    1.6617   -2.8230 H   0  0  0  0  0  0  0  0  0  0  0  0
    6.8657    3.0692   -2.1264 H   0  0  0  0  0  0  0  0  0  0  0  0
    5.9035    3.6892   -4.3543 H   0  0  0  0  0  0  0  0  0  0  0  0
    8.9410    3.2826   -4.3644 H   0  0  0  0  0  0  0  0  0  0  0  0
    8.0383    4.4389   -5.3599 H   0  0  0  0  0  0  0  0  0  0  0  0
    8.0759    4.6297   -3.6025 H   0  0  0  0  0  0  0  0  0  0  0  0
    6.7943    2.5662   -6.4151 H   0  0  0  0  0  0  0  0  0  0  0  0
    7.5250    1.3075   -5.4038 H   0  0  0  0  0  0  0  0  0  0  0  0
    5.7626    1.4968   -5.4682 H   0  0  0  0  0  0  0  0  0  0  0  0
  1  2  1  0
  2  3  1  0
  3  4  1  0
  4  5  1  0
  5  6  1  0
  6  7  2  0
  6  8  1  0
  8  9  1  0
  9 10  2  0
  9 11  1  0
 11 12  2  0
 11 13  1  0
 13 14  2  0
 14 15  1  0
 15 16  2  0
 13 17  1  0
 17 18  2  0
 18 19  1  0
 19 20  2  0
 20 21  1  0
 21 22  2  0
 20 23  1  0
 23 24  1  0
 24 25  1  0
 25 26  1  0
 26 27  1  0
 26 28  1  0
  5  1  1  0
 12  7  1  0
 16 12  1  0
 22 17  1  0
  1 29  1  0
  1 30  1  0
  2 31  1  0
  2 32  1  0
  3 33  1  0
  3 34  1  0
  4 35  1  0
  4 36  1  0
  8 37  1  0
 14 38  1  0
 15 39  1  0
 18 40  1  0
 19 41  1  0
 21 42  1  0
 22 43  1  0
 24 44  1  0
 24 45  1  0
 25 46  1  0
 25 47  1  0
 26 48  1  0
 27 49  1  0
 27 50  1  0
 27 51  1  0
 28 52  1  0
 28 53  1  0
 28 54  1  0
M  END
>  <mol_id>  (2) 
STL121594

>  <drugclip_rank>  (2) 
2

>  <conformer>  (2) 
3

>  <align_rmsd>  (2) 
0.594

$$$$
STL354617
     RDKit          3D

 45 47  0  0  0  0  0  0  0  0999 V2000
    7.0636   -2.4648    0.0658 C   0  0  0  0  0  0  0  0  0  0  0  0
    6.3408   -1.9888   -1.1799 C   0  0  0  0  0  0  0  0  0  0  0  0
    4.9338   -1.8678   -0.9153 O   0  0  0  0  0  0  0  0  0  0  0  0
    4.5342   -0.6732   -0.4102 C   0  0  0  0  0  0  0  0  0  0  0  0
    5.2440    0.2976   -0.2012 O   0  0  0  0  0  0  0  0  0  0  0  0
    3.0792   -0.6461   -0.2157 C   0  0  0  0  0  0  0  0  0  0  0  0
    2.4284    0.5657   -0.3277 C   0  0  0  0  0  0  0  0  0  0  0  0
    1.0944    0.7177   -0.1838 N   0  0  0  0  0  0  0  0  0  0  0  0
    0.4033   -0.3980    0.0944 C   0  0  0  0  0  0  0  0  0  0  0  0
    0.9468   -1.6167    0.2495 N   0  0  0  0  0  0  0  0  0  0  0  0
    2.2783   -1.7316    0.0896 C   0  0  0  0  0  0  0  0  0  0  0  0
    2.7784   -3.0062    0.3504 N   0  0  0  0  0  0  0  0  0  0  0  0
   -1.3490   -0.2725    0.3280 S   0  0  0  0  0  0  0  0  0  0  0  0
   -1.6729    1.1939   -0.6979 C   0  0  0  0  0  0  0  0  0  0  0  0
   -3.1638    1.4771   -0.7705 C   0  0  0  0  0  0  0  0  0  0  0  0
   -3.7282    1.5512   -1.8589 O   0  0  0  0  0  0  0  0  0  0  0  0
   -3.7311    1.6857    0.4687 N   0  0  0  0  0  0  0  0  0  0  0  0
   -5.0478    2.0044    0.6351 C   0  0  0  0  0  0  0  0  0  0  0  0
   -5.9656    2.2381   -0.2630 N   0  0  0  0  0  0  0  0  0  0  0  0
   -7.1747    2.5256    0.3577 C   0  0  0  0  0  0  0  0  0  0  0  0
   -7.1254    2.5012    1.7399 C   0  0  0  0  0  0  0  0  0  0  0  0
   -5.5359    2.1168    2.2656 S   0  0  0  0  0  0  0  0  0  0  0  0
   -8.3738    2.7986   -0.4342 C   0  0  0  0  0  0  0  0  0  0  0  0
   -8.3832    2.4674   -1.7984 C   0  0  0  0  0  0  0  0  0  0  0  0
   -9.5127    2.7013   -2.5869 C   0  0  0  0  0  0  0  0  0  0  0  0
  -10.6480    3.2775   -2.0233 C   0  0  0  0  0  0  0  0  0  0  0  0
  -10.6533    3.6214   -0.6742 C   0  0  0  0  0  0  0  0  0  0  0  0
   -9.5232    3.3852    0.1169 C   0  0  0  0  0  0  0  0  0  0  0  0
    8.1309   -2.5925   -0.1322 H   0  0  0  0  0  0  0  0  0  0  0  0
    6.9411   -1.7537    0.8881 H   0  0  0  0  0  0  0  0  0  0  0  0
    6.6490   -3.4202    0.4056 H   0  0  0  0  0  0  0  0  0  0  0  0
    6.7592   -1.0472   -1.5551 H   0  0  0  0  0  0  0  0  0  0  0  0
    6.4538   -2.7296   -1.9787 H   0  0  0  0  0  0  0  0  0  0  0  0
    2.9724    1.4825   -0.5481 H   0  0  0  0  0  0  0  0  0  0  0  0
    3.4421   -3.3176   -0.3541 H   0  0  0  0  0  0  0  0  0  0  0  0
    1.9968   -3.6461    0.4706 H   0  0  0  0  0  0  0  0  0  0  0  0
   -1.1769    2.0778   -0.2832 H   0  0  0  0  0  0  0  0  0  0  0  0
   -1.3032    1.0234   -1.7139 H   0  0  0  0  0  0  0  0  0  0  0  0
   -3.1902    1.5245    1.3077 H   0  0  0  0  0  0  0  0  0  0  0  0
   -7.9133    2.6694    2.4593 H   0  0  0  0  0  0  0  0  0  0  0  0
   -7.5016    2.0191   -2.2581 H   0  0  0  0  0  0  0  0  0  0  0  0
   -9.4993    2.4336   -3.6401 H   0  0  0  0  0  0  0  0  0  0  0  0
  -11.5261    3.4616   -2.6375 H   0  0  0  0  0  0  0  0  0  0  0  0
  -11.5367    4.0780   -0.2349 H   0  0  0  0  0  0  0  0  0  0  0  0
   -9.5609    3.6771    1.1615 H   0  0  0  0  0  0  0  0  0  0  0  0
  1  2  1  0
  2  3  1  0
  3  4  1  0
  4  5  2  0
  4  6  1  0
  6  7  2  0
  7  8  1  0
  8  9  2  0
  9 10  1  0
 10 11  2  0
 11 12  1  0
  9 13  1  0
 13 14  1  0
 14 15  1  0
 15 16  2  0
 15 17  1  0
 17 18  1  0
 18 19  2  0
 19 20  1  0
 20 21  2  0
 21 22  1  0
 20 23  1  0
 23 24  2  0
 24 25  1  0
 25 26  2  0
 26 27  1  0
 27 28  2  0
 11  6  1  0
 22 18  1  0
 28 23  1  0
  1 29  1  0
  1 30  1  0
  1 31  1  0
  2 32  1  0
  2 33  1  0
  7 34  1  0
 12 35  1  0
 12 36  1  0
 14 37  1  0
 14 38  1  0
 17 39  1  0
 21 40  1  0
 24 41  1  0
 25 42  1  0
 26 43  1  0
 27 44  1  0
 28 45  1  0
M  END
>  <mol_id>  (3) 
STL354617

>  <drugclip_rank>  (3) 
3

>  <conformer>  (3) 
8

>  <align_rmsd>  (3) 
0.891

$$$$
OSSL_976990
     RDKit          3D

 54 57  0  0  0  0  0  0  0  0999 V2000
   -4.9662   -0.4279    2.8521 C   0  0  0  0  0  0  0  0  0  0  0  0
   -6.0878    0.5658    3.1346 C   0  0  0  0  0  0  0  0  0  0  0  0
   -5.9931    1.5232    1.9609 C   0  0  0  0  0  0  0  0  0  0  0  0
   -4.4887    1.6547    1.7495 C   0  0  0  0  0  0  0  0  0  0  0  0
   -3.9525    0.3647    2.1551 N   0  0  0  0  0  0  0  0  0  0  0  0
   -2.7024   -0.1356    1.8954 C   0  0  0  0  0  0  0  0  0  0  0  0
   -2.3825   -1.3514    2.2026 N   0  0  0  0  0  0  0  0  0  0  0  0
   -1.7907    0.6928    1.3008 N   0  0  0  0  0  0  0  0  0  0  0  0
   -0.5003    0.3453    0.9908 C   0  0  0  0  0  0  0  0  0  0  0  0
    0.2517    1.1708    0.4882 O   0  0  0  0  0  0  0  0  0  0  0  0
   -0.1142   -1.0418    1.3037 C   0  0  0  0  0  0  0  0  0  0  0  0
   -1.0972   -1.8165    1.9102 C   0  0  0  0  0  0  0  0  0  0  0  0
    1.1454   -1.6116    1.0470 C   0  0  0  0  0  0  0  0  0  0  0  0
    1.3414   -2.9485    1.4279 C   0  0  0  0  0  0  0  0  0  0  0  0
    0.3056   -3.6421    2.0278 C   0  0  0  0  0  0  0  0  0  0  0  0
   -0.9032   -3.1056    2.2738 N   0  0  0  0  0  0  0  0  0  0  0  0
    2.2613   -0.9059    0.4050 C   0  0  0  0  0  0  0  0  0  0  0  0
    3.3556   -0.4612    1.1596 C   0  0  0  0  0  0  0  0  0  0  0  0
    4.4314    0.1834    0.5425 C   0  0  0  0  0  0  0  0  0  0  0  0
    4.4345    0.4024   -0.8360 C   0  0  0  0  0  0  0  0  0  0  0  0
    3.3570   -0.0453   -1.5987 C   0  0  0  0  0  0  0  0  0  0  0  0
    2.2814   -0.6971   -0.9824 C   0  0  0  0  0  0  0  0  0  0  0  0
    5.5437    1.0454   -1.3118 O   0  0  0  0  0  0  0  0  0  0  0  0
    5.4883    1.5119   -2.6618 C   0  0  0  0  0  0  0  0  0  0  0  0
    6.7583    2.3216   -2.9239 C   0  0  0  0  0  0  0  0  0  0  0  0
    6.7757    3.0260   -4.2903 C   0  0  0  0  0  0  0  0  0  0  0  0
    8.0319    3.8922   -4.4109 C   0  0  0  0  0  0  0  0  0  0  0  0
    6.7123    2.0400   -5.4577 C   0  0  0  0  0  0  0  0  0  0  0  0
   -4.5849   -0.8561    3.7853 H   0  0  0  0  0  0  0  0  0  0  0  0
   -5.3179   -1.2381    2.2027 H   0  0  0  0  0  0  0  0  0  0  0  0
   -5.8901    1.1014    4.0708 H   0  0  0  0  0  0  0  0  0  0  0  0
   -7.0656    0.0831    3.2150 H   0  0  0  0  0  0  0  0  0  0  0  0
   -6.4745    2.4858    2.1545 H   0  0  0  0  0  0  0  0  0  0  0  0
   -6.4606    1.0761    1.0752 H   0  0  0  0  0  0  0  0  0  0  0  0
   -4.2675    1.8885    0.7031 H   0  0  0  0  0  0  0  0  0  0  0  0
   -4.0748    2.4441    2.3869 H   0  0  0  0  0  0  0  0  0  0  0  0
   -2.0364    1.6453    1.0946 H   0  0  0  0  0  0  0  0  0  0  0  0
    2.2916   -3.4461    1.2535 H   0  0  0  0  0  0  0  0  0  0  0  0
    0.4248   -4.6778    2.3334 H   0  0  0  0  0  0  0  0  0  0  0  0
    3.3765   -0.6069    2.2373 H   0  0  0  0  0  0  0  0  0  0  0  0
    5.2693    0.5275    1.1439 H   0  0  0  0  0  0  0  0  0  0  0  0
    3.3192    0.0934   -2.6736 H   0  0  0  0  0  0  0  0  0  0  0  0
    1.4489   -1.0338   -1.5969 H   0  0  0  0  0  0  0  0  0  0  0  0
    4.6099    2.1526   -2.8045 H   0  0  0  0  0  0  0  0  0  0  0  0
    5.4467    0.6548   -3.3423 H   0  0  0  0  0  0  0  0  0  0  0  0
    7.6303    1.6617   -2.8230 H   0  0  0  0  0  0  0  0  0  0  0  0
    6.8657    3.0692   -2.1264 H   0  0  0  0  0  0  0  0  0  0  0  0
    5.9035    3.6892   -4.3543 H   0  0  0  0  0  0  0  0  0  0  0  0
    8.9410    3.2826   -4.3644 H   0  0  0  0  0  0  0  0  0  0  0  0
    8.0383    4.4389   -5.3599 H   0  0  0  0  0  0  0  0  0  0  0  0
    8.0759    4.6297   -3.6025 H   0  0  0  0  0  0  0  0  0  0  0  0
    6.7943    2.5662   -6.4151 H   0  0  0  0  0  0  0  0  0  0  0  0
    7.5250    1.3075   -5.4038 H   0  0  0  0  0  0  0  0  0  0  0  0
    5.7626    1.4968   -5.4682 H   0  0  0  0  0  0  0  0  0  0  0  0
  1  2  1  0
  2  3  1  0
  3  4  1  0
  4  5  1  0
  5  6  1  0
  6  7  2  0
  6  8  1  0
  8  9  1  0
  9 10  2  0
  9 11  1  0
 11 12  2  0
 11 13  1  0
 13 14  2  0
 14 15  1  0
 15 16  2  0
 13 17  1  0
 17 18  2  0
 18 19  1  0
 19 20  2  0
 20 21  1  0
 21 22  2  0
 20 23  1  0
 23 24  1  0
 24 25  1  0
 25 26  1  0
 26 27  1  0
 26 28  1  0
  5  1  1  0
 12  7  1  0
 16 12  1  0
 22 17  1  0
  1 29  1  0
  1 30  1  0
  2 31  1  0
  2 32  1  0
  3 33  1  0
  3 34  1  0
  4 35  1  0
  4 36  1  0
  8 37  1  0
 14 38  1  0
 15 39  1  0
 18 40  1  0
 19 41  1  0
 21 42  1  0
 22 43  1  0
 24 44  1  0
 24 45  1  0
 25 46  1  0
 25 47  1  0
 26 48  1  0
 27 49  1  0
 27 50  1  0
 27 51  1  0
 28 52  1  0
 28 53  1  0
 28 54  1  0
M  END
>  <mol_id>  (4) 
OSSL_976990

>  <drugclip_rank>  (4) 
4

>  <conformer>  (4) 
3

>  <align_rmsd>  (4) 
0.594

$$$$
Z114026980
     RDKit          3D

 44 46  0  0  0  0  0  0  0  0999 V2000
   -8.8280    1.2449    1.4638 C   0  0  0  0  0  0  0  0  0  0  0  0
   -8.6202   -0.2381    1.7245 C   0  0  0  0  0  0  0  0  0  0  0  0
   -7.5166   -0.4533    2.6419 N   0  0  0  0  0  0  0  0  0  0  0  0
   -6.2437   -0.4401    2.1785 C   0  0  0  0  0  0  0  0  0  0  0  0
   -5.8678   -0.5295    0.9191 N   0  0  0  0  0  0  0  0  0  0  0  0
   -4.4969   -0.4794    0.7656 N   0  0  0  0  0  0  0  0  0  0  0  0
   -3.8796   -0.3586    1.9189 C   0  0  0  0  0  0  0  0  0  0  0  0
   -4.9217   -0.2893    3.2742 S   0  0  0  0  0  0  0  0  0  0  0  0
   -2.1413   -0.2685    2.0587 S   0  0  0  0  0  0  0  0  0  0  0  0
   -1.6742   -0.4286    0.3060 C   0  0  0  0  0  0  0  0  0  0  0  0
   -0.1754   -0.3920    0.1240 C   0  0  0  0  0  0  0  0  0  0  0  0
    0.4781   -1.5770    0.1802 N   0  0  0  0  0  0  0  0  0  0  0  0
    1.8189   -1.6081    0.0525 C   0  0  0  0  0  0  0  0  0  0  0  0
    2.4331   -2.8400    0.1590 N   0  0  0  0  0  0  0  0  0  0  0  0
    0.3883    0.8128   -0.0643 N   0  0  0  0  0  0  0  0  0  0  0  0
    1.7159    0.7323   -0.2009 C   0  0  0  0  0  0  0  0  0  0  0  0
    2.4994   -0.4083   -0.1680 C   0  0  0  0  0  0  0  0  0  0  0  0
    2.4983    1.8259   -0.4005 O   0  0  0  0  0  0  0  0  0  0  0  0
    3.7867    1.3980   -0.5058 C   0  0  0  0  0  0  0  0  0  0  0  0
    4.7899    2.4613   -0.7395 C   0  0  0  0  0  0  0  0  0  0  0  0
    3.8510    0.0176   -0.3806 C   0  0  0  0  0  0  0  0  0  0  0  0
    5.0331   -0.8202   -0.4681 C   0  0  0  0  0  0  0  0  0  0  0  0
    4.9795   -2.0430   -0.5417 O   0  0  0  0  0  0  0  0  0  0  0  0
    6.1947   -0.1057   -0.4741 O   0  0  0  0  0  0  0  0  0  0  0  0
    7.4067   -0.8696   -0.5565 C   0  0  0  0  0  0  0  0  0  0  0  0
    7.7541   -1.1420   -2.0078 C   0  0  0  0  0  0  0  0  0  0  0  0
   -9.0055    1.7865    2.3991 H   0  0  0  0  0  0  0  0  0  0  0  0
   -7.9529    1.6908    0.9801 H   0  0  0  0  0  0  0  0  0  0  0  0
   -9.6922    1.3987    0.8104 H   0  0  0  0  0  0  0  0  0  0  0  0
   -8.4707   -0.7765    0.7809 H   0  0  0  0  0  0  0  0  0  0  0  0
   -9.5286   -0.6504    2.1782 H   0  0  0  0  0  0  0  0  0  0  0  0
   -7.6702   -0.1470    3.5965 H   0  0  0  0  0  0  0  0  0  0  0  0
   -2.0580   -1.3747   -0.0916 H   0  0  0  0  0  0  0  0  0  0  0  0
   -2.1236    0.3877   -0.2703 H   0  0  0  0  0  0  0  0  0  0  0  0
    3.3766   -2.9216   -0.2156 H   0  0  0  0  0  0  0  0  0  0  0  0
    1.8040   -3.6202    0.0251 H   0  0  0  0  0  0  0  0  0  0  0  0
    4.3127    3.4402   -0.8530 H   0  0  0  0  0  0  0  0  0  0  0  0
    5.4865    2.5228    0.1022 H   0  0  0  0  0  0  0  0  0  0  0  0
    5.3589    2.2592   -1.6524 H   0  0  0  0  0  0  0  0  0  0  0  0
    8.1961   -0.2662   -0.0966 H   0  0  0  0  0  0  0  0  0  0  0  0
    7.3343   -1.7982    0.0212 H   0  0  0  0  0  0  0  0  0  0  0  0
    6.9792   -1.7455   -2.4912 H   0  0  0  0  0  0  0  0  0  0  0  0
    7.8232   -0.2043   -2.5690 H   0  0  0  0  0  0  0  0  0  0  0  0
    8.7079   -1.6712   -2.0855 H   0  0  0  0  0  0  0  0  0  0  0  0
  1  2  1  0
  2  3  1  0
  3  4  1  0
  4  5  2  0
  5  6  1  0
  6  7  2  0
  7  8  1  0
  7  9  1  0
  9 10  1  0
 10 11  1  0
 11 12  2  0
 12 13  1  0
 13 14  1  0
 11 15  1  0
 15 16  2  0
 16 17  1  0
 16 18  1  0
 18 19  1  0
 19 20  1  0
 19 21  2  0
 21 22  1  0
 22 23  2  0
 22 24  1  0
 24 25  1  0
 25 26  1  0
  8  4  1  0
 17 13  2  0
 21 17  1  0
  1 27  1  0
  1 28  1  0
  1 29  1  0
  2 30  1  0
  2 31  1  0
  3 32  1  0
 10 33  1  0
 10 34  1  0
 14 35  1  0
 14 36  1  0
 20 37  1  0
 20 38  1  0
 20 39  1  0
 25 40  1  0
 25 41  1  0
 26 42  1  0
 26 43  1  0
 26 44  1  0
M  END
>  <mol_id>  (5) 
Z114026980

>  <drugclip_rank>  (5) 
5

>  <conformer>  (5) 
2

>  <align_rmsd>  (5) 
0.739

$$$$
OSSL_150435
     RDKit          3D

 57 60  0  0  0  0  0  0  0  0999 V2000
   -4.9097   -0.4116    2.9474 C   0  0  0  0  0  0  0  0  0  0  0  0
   -6.0581    0.4826    3.4034 C   0  0  0  0  0  0  0  0  0  0  0  0
   -6.8975    0.9751    2.2276 C   0  0  0  0  0  0  0  0  0  0  0  0
   -6.1006    1.0318    0.9275 C   0  0  0  0  0  0  0  0  0  0  0  0
   -4.6255    1.3309    1.1751 C   0  0  0  0  0  0  0  0  0  0  0  0
   -4.0103    0.3186    2.0394 N   0  0  0  0  0  0  0  0  0  0  0  0
   -2.7258   -0.1571    1.8553 C   0  0  0  0  0  0  0  0  0  0  0  0
   -2.3599   -1.3202    2.2902 N   0  0  0  0  0  0  0  0  0  0  0  0
   -1.8300    0.6498    1.2066 N   0  0  0  0  0  0  0  0  0  0  0  0
   -0.5088    0.3457    0.9970 C   0  0  0  0  0  0  0  0  0  0  0  0
    0.2394    1.1785    0.5013 O   0  0  0  0  0  0  0  0  0  0  0  0
   -0.0835   -1.0006    1.4170 C   0  0  0  0  0  0  0  0  0  0  0  0
   -1.0525   -1.7590    2.0647 C   0  0  0  0  0  0  0  0  0  0  0  0
    1.1992   -1.5445    1.2273 C   0  0  0  0  0  0  0  0  0  0  0  0
    1.4319   -2.8388    1.7200 C   0  0  0  0  0  0  0  0  0  0  0  0
    0.4084   -3.5178    2.3566 C   0  0  0  0  0  0  0  0  0  0  0  0
   -0.8231   -3.0067    2.5351 N   0  0  0  0  0  0  0  0  0  0  0  0
    2.3000   -0.8599    0.5360 C   0  0  0  0  0  0  0  0  0  0  0  0
    2.2902   -0.7035   -0.8583 C   0  0  0  0  0  0  0  0  0  0  0  0
    3.3513   -0.0758   -1.5227 C   0  0  0  0  0  0  0  0  0  0  0  0
    4.4456    0.3995   -0.8022 C   0  0  0  0  0  0  0  0  0  0  0  0
    4.4736    0.2331    0.5831 C   0  0  0  0  0  0  0  0  0  0  0  0
    3.4114   -0.3867    1.2481 C   0  0  0  0  0  0  0  0  0  0  0  0
    5.5437    1.0225   -1.3281 O   0  0  0  0  0  0  0  0  0  0  0  0
    5.4504    1.4502   -2.6850 C   0  0  0  0  0  0  0  0  0  0  0  0
    6.7024    2.2479   -3.0581 C   0  0  0  0  0  0  0  0  0  0  0  0
    6.7291    3.6900   -2.5111 C   0  0  0  0  0  0  0  0  0  0  0  0
    7.9231    4.4398   -3.1069 C   0  0  0  0  0  0  0  0  0  0  0  0
    6.7924    3.7565   -0.9853 C   0  0  0  0  0  0  0  0  0  0  0  0
   -5.2947   -1.3073    2.4455 H   0  0  0  0  0  0  0  0  0  0  0  0
   -4.3611   -0.7394    3.8389 H   0  0  0  0  0  0  0  0  0  0  0  0
   -5.6486    1.3509    3.9367 H   0  0  0  0  0  0  0  0  0  0  0  0
   -6.6967   -0.0501    4.1161 H   0  0  0  0  0  0  0  0  0  0  0  0
   -7.2965    1.9678    2.4676 H   0  0  0  0  0  0  0  0  0  0  0  0
   -7.7649    0.3194    2.0851 H   0  0  0  0  0  0  0  0  0  0  0  0
   -6.5341    1.7854    0.2600 H   0  0  0  0  0  0  0  0  0  0  0  0
   -6.1892    0.0669    0.4107 H   0  0  0  0  0  0  0  0  0  0  0  0
   -4.5084    2.3177    1.6385 H   0  0  0  0  0  0  0  0  0  0  0  0
   -4.1265    1.3634    0.1998 H   0  0  0  0  0  0  0  0  0  0  0  0
   -2.0919    1.5902    0.9637 H   0  0  0  0  0  0  0  0  0  0  0  0
    2.4010   -3.3165    1.6018 H   0  0  0  0  0  0  0  0  0  0  0  0
    0.5568   -4.5201    2.7485 H   0  0  0  0  0  0  0  0  0  0  0  0
    1.4452   -1.0630   -1.4420 H   0  0  0  0  0  0  0  0  0  0  0  0
    3.2885    0.0220   -2.6010 H   0  0  0  0  0  0  0  0  0  0  0  0
    5.3249    0.5990    1.1518 H   0  0  0  0  0  0  0  0  0  0  0  0
    3.4570   -0.4903    2.3300 H   0  0  0  0  0  0  0  0  0  0  0  0
    4.5578    2.0670   -2.8414 H   0  0  0  0  0  0  0  0  0  0  0  0
    5.4047    0.5680   -3.3338 H   0  0  0  0  0  0  0  0  0  0  0  0
    7.5951    1.7112   -2.7129 H   0  0  0  0  0  0  0  0  0  0  0  0
    6.7535    2.2949   -4.1534 H   0  0  0  0  0  0  0  0  0  0  0  0
    5.8176    4.2059   -2.8365 H   0  0  0  0  0  0  0  0  0  0  0  0
    8.8691    3.9660   -2.8301 H   0  0  0  0  0  0  0  0  0  0  0  0
    7.9465    5.4760   -2.7560 H   0  0  0  0  0  0  0  0  0  0  0  0
    7.8629    4.4617   -4.1993 H   0  0  0  0  0  0  0  0  0  0  0  0
    7.6210    3.1564   -0.5952 H   0  0  0  0  0  0  0  0  0  0  0  0
    6.9339    4.7883   -0.6459 H   0  0  0  0  0  0  0  0  0  0  0  0
    5.8635    3.3991   -0.5328 H   0  0  0  0  0  0  0  0  0  0  0  0
  1  2  1  0
  2  3  1  0
  3  4  1  0
  4  5  1  0
  5  6  1  0
  6  7  1  0
  7  8  2  0
  7  9  1  0
  9 10  1  0
 10 11  2  0
 10 12  1  0
 12 13  2  0
 12 14  1  0
 14 15  2  0
 15 16  1  0
 16 17  2  0
 14 18  1  0
 18 19  2  0
 19 20  1  0
 20 21  2  0
 21 22  1  0
 22 23  2  0
 21 24  1  0
 24 25  1  0
 25 26  1  0
 26 27  1  0
 27 28  1  0
 27 29  1  0
  6  1  1  0
 13  8  1  0
 17 13  1  0
 23 18  1  0
  1 30  1  0
  1 31  1  0
  2 32  1  0
  2 33  1  0
  3 34  1  0
  3 35  1  0
  4 36  1  0
  4 37  1  0
  5 38  1  0
  5 39  1  0
  9 40  1  0
 15 41  1  0
 16 42  1  0
 19 43  1  0
 20 44  1  0
 22 45  1  0
 23 46  1  0
 25 47  1  0
 25 48  1  0
 26 49  1  0
 26 50  1  0
 27 51  1  0
 28 52  1  0
 28 53  1  0
 28 54  1  0
 29 55  1  0
 29 56  1  0
 29 57  1  0
M  END
>  <mol_id>  (6) 
OSSL_150435

>  <drugclip_rank>  (6) 
6

>  <conformer>  (6) 
26

>  <align_rmsd>  (6) 
0.57

$$$$
D133-0020
     RDKit          3D

 48 49  0  0  0  0  0  0  0  0999 V2000
    6.0179   -4.0231   -1.5663 C   0  0  0  0  0  0  0  0  0  0  0  0
    5.9701   -2.5685   -1.1415 C   0  0  0  0  0  0  0  0  0  0  0  0
    4.6000   -2.2247   -0.8865 O   0  0  0  0  0  0  0  0  0  0  0  0
    4.4117   -0.9391   -0.4977 C   0  0  0  0  0  0  0  0  0  0  0  0
    5.2875   -0.0995   -0.3627 O   0  0  0  0  0  0  0  0  0  0  0  0
    2.9837   -0.6465   -0.2929 C   0  0  0  0  0  0  0  0  0  0  0  0
    2.5876    0.6750   -0.3130 C   0  0  0  0  0  0  0  0  0  0  0  0
    1.3118    1.0799   -0.1474 N   0  0  0  0  0  0  0  0  0  0  0  0
    0.4086    0.1139    0.0612 C   0  0  0  0  0  0  0  0  0  0  0  0
    0.6932   -1.1960    0.1022 N   0  0  0  0  0  0  0  0  0  0  0  0
    1.9733   -1.5721   -0.0782 C   0  0  0  0  0  0  0  0  0  0  0  0
    2.1996   -2.9494    0.0538 N   0  0  0  0  0  0  0  0  0  0  0  0
   -1.2741    0.6266    0.2735 S   0  0  0  0  0  0  0  0  0  0  0  0
   -1.9131   -0.8338    1.1529 C   0  0  0  0  0  0  0  0  0  0  0  0
   -3.3559   -0.6170    1.5833 C   0  0  0  0  0  0  0  0  0  0  0  0
   -3.6936   -0.8047    2.7493 O   0  0  0  0  0  0  0  0  0  0  0  0
   -4.1962   -0.2752    0.5350 N   0  0  0  0  0  0  0  0  0  0  0  0
   -5.5866   -0.0561    0.5756 C   0  0  0  0  0  0  0  0  0  0  0  0
   -6.2073    0.3273   -0.6201 C   0  0  0  0  0  0  0  0  0  0  0  0
   -7.5864    0.5603   -0.6669 C   0  0  0  0  0  0  0  0  0  0  0  0
   -6.3682   -0.2025    1.7231 C   0  0  0  0  0  0  0  0  0  0  0  0
   -7.7495    0.0321    1.6812 C   0  0  0  0  0  0  0  0  0  0  0  0
   -8.3670    0.4150    0.4853 C   0  0  0  0  0  0  0  0  0  0  0  0
   -9.8291    0.6725    0.3837 C   0  0  0  0  0  0  0  0  0  0  0  0
  -10.3919    0.9539   -0.6626 O   0  0  0  0  0  0  0  0  0  0  0  0
  -10.4221    0.5535    1.5973 O   0  0  0  0  0  0  0  0  0  0  0  0
  -11.8350    0.7891    1.5862 C   0  0  0  0  0  0  0  0  0  0  0  0
  -12.3431    0.6848    3.0108 C   0  0  0  0  0  0  0  0  0  0  0  0
    7.0455   -4.3370   -1.7702 H   0  0  0  0  0  0  0  0  0  0  0  0
    5.5990   -4.6670   -0.7859 H   0  0  0  0  0  0  0  0  0  0  0  0
    5.4146   -4.1809   -2.4667 H   0  0  0  0  0  0  0  0  0  0  0  0
    6.5615   -2.4276   -0.2301 H   0  0  0  0  0  0  0  0  0  0  0  0
    6.3668   -1.9349   -1.9424 H   0  0  0  0  0  0  0  0  0  0  0  0
    3.3019    1.4807   -0.4712 H   0  0  0  0  0  0  0  0  0  0  0  0
    2.7375   -3.1333    0.8970 H   0  0  0  0  0  0  0  0  0  0  0  0
    2.7716   -3.2786   -0.7244 H   0  0  0  0  0  0  0  0  0  0  0  0
   -1.8790   -1.7204    0.5108 H   0  0  0  0  0  0  0  0  0  0  0  0
   -1.3109   -1.0157    2.0491 H   0  0  0  0  0  0  0  0  0  0  0  0
   -3.7382   -0.0976   -0.3525 H   0  0  0  0  0  0  0  0  0  0  0  0
   -5.6308    0.4502   -1.5339 H   0  0  0  0  0  0  0  0  0  0  0  0
   -8.0473    0.8558   -1.6080 H   0  0  0  0  0  0  0  0  0  0  0  0
   -5.9360   -0.4984    2.6747 H   0  0  0  0  0  0  0  0  0  0  0  0
   -8.3255   -0.0917    2.5953 H   0  0  0  0  0  0  0  0  0  0  0  0
  -12.0438    1.7897    1.1920 H   0  0  0  0  0  0  0  0  0  0  0  0
  -12.3275    0.0362    0.9610 H   0  0  0  0  0  0  0  0  0  0  0  0
  -12.1169   -0.3009    3.4306 H   0  0  0  0  0  0  0  0  0  0  0  0
  -13.4234    0.8474    3.0521 H   0  0  0  0  0  0  0  0  0  0  0  0
  -11.8495    1.4236    3.6510 H   0  0  0  0  0  0  0  0  0  0  0  0
  1  2  1  0
  2  3  1  0
  3  4  1  0
  4  5  2  0
  4  6  1  0
  6  7  2  0
  7  8  1  0
  8  9  2  0
  9 10  1  0
 10 11  2  0
 11 12  1  0
  9 13  1  0
 13 14  1  0
 14 15  1  0
 15 16  2  0
 15 17  1  0
 17 18  1  0
 18 19  2  0
 19 20  1  0
 18 21  1  0
 21 22  2  0
 22 23  1  0
 23 24  1  0
 24 25  2  0
 24 26  1  0
 26 27  1  0
 27 28  1  0
 11  6  1  0
 23 20  2  0
  1 29  1  0
  1 30  1  0
  1 31  1  0
  2 32  1  0
  2 33  1  0
  7 34  1  0
 12 35  1  0
 12 36  1  0
 14 37  1  0
 14 38  1  0
 17 39  1  0
 19 40  1  0
 20 41  1  0
 21 42  1  0
 22 43  1  0
 27 44  1  0
 27 45  1  0
 28 46  1  0
 28 47  1  0
 28 48  1  0
M  END
>  <mol_id>  (7) 
D133-0020

>  <drugclip_rank>  (7) 
7

>  <conformer>  (7) 
39

>  <align_rmsd>  (7) 
0.689

$$$$
Z52665806
     RDKit          3D

 53 56  0  0  0  0  0  0  0  0999 V2000
    8.0277   -1.5469   -0.7162 C   0  0  0  0  0  0  0  0  0  0  0  0
    7.2001   -0.9208   -1.8228 C   0  0  0  0  0  0  0  0  0  0  0  0
    6.1338   -0.1407   -1.2624 O   0  0  0  0  0  0  0  0  0  0  0  0
    4.9864   -0.8163   -0.9668 C   0  0  0  0  0  0  0  0  0  0  0  0
    4.8294   -2.0172   -1.1581 O   0  0  0  0  0  0  0  0  0  0  0  0
    3.9540    0.0352   -0.4049 C   0  0  0  0  0  0  0  0  0  0  0  0
    3.9536    1.4208   -0.3312 C   0  0  0  0  0  0  0  0  0  0  0  0
    2.7950    1.8674    0.2279 O   0  0  0  0  0  0  0  0  0  0  0  0
    4.9092    2.4768   -0.7352 C   0  0  0  0  0  0  0  0  0  0  0  0
    2.7093   -0.3767    0.1736 C   0  0  0  0  0  0  0  0  0  0  0  0
    2.0359    0.7799    0.5271 C   0  0  0  0  0  0  0  0  0  0  0  0
    2.0497   -1.5752    0.4554 C   0  0  0  0  0  0  0  0  0  0  0  0
    2.5824   -2.8296    0.2224 N   0  0  0  0  0  0  0  0  0  0  0  0
    0.8193   -1.5238    0.9991 N   0  0  0  0  0  0  0  0  0  0  0  0
    0.2597   -0.3232    1.2834 C   0  0  0  0  0  0  0  0  0  0  0  0
    0.8244    0.8806    1.0826 N   0  0  0  0  0  0  0  0  0  0  0  0
   -1.1479   -0.3360    1.8743 C   0  0  0  0  0  0  0  0  0  0  0  0
   -2.2428   -0.3592    0.8767 N   0  0  0  0  0  0  0  0  0  0  0  0
   -3.5551   -0.5916    1.5128 C   0  0  0  0  0  0  0  0  0  0  0  0
   -4.3675    0.6727    1.8827 C   0  0  0  0  0  0  0  0  0  0  0  0
   -4.5172    1.5848    0.7374 N   0  0  0  0  0  0  0  0  0  0  0  0
   -3.6575    1.3046   -0.4251 C   0  0  0  0  0  0  0  0  0  0  0  0
   -2.2534    0.8824    0.0631 C   0  0  0  0  0  0  0  0  0  0  0  0
   -5.7816    2.0899    0.4480 C   0  0  0  0  0  0  0  0  0  0  0  0
   -6.6275    2.5294    1.4692 C   0  0  0  0  0  0  0  0  0  0  0  0
   -7.8856    3.0505    1.1663 C   0  0  0  0  0  0  0  0  0  0  0  0
   -8.2801    3.1353   -0.1583 C   0  0  0  0  0  0  0  0  0  0  0  0
   -7.3896    2.7008   -1.1199 C   0  0  0  0  0  0  0  0  0  0  0  0
   -6.1667    2.1941   -0.8439 N   0  0  0  0  0  0  0  0  0  0  0  0
    8.8789   -2.0943   -1.1308 H   0  0  0  0  0  0  0  0  0  0  0  0
    7.4257   -2.2382   -0.1179 H   0  0  0  0  0  0  0  0  0  0  0  0
    8.4013   -0.7769   -0.0331 H   0  0  0  0  0  0  0  0  0  0  0  0
    7.8242   -0.2356   -2.4057 H   0  0  0  0  0  0  0  0  0  0  0  0
    6.8187   -1.6776   -2.5178 H   0  0  0  0  0  0  0  0  0  0  0  0
    5.1421    2.3975   -1.8015 H   0  0  0  0  0  0  0  0  0  0  0  0
    4.4973    3.4753   -0.5563 H   0  0  0  0  0  0  0  0  0  0  0  0
    5.8392    2.3906   -0.1651 H   0  0  0  0  0  0  0  0  0  0  0  0
    1.8744   -3.5512    0.1781 H   0  0  0  0  0  0  0  0  0  0  0  0
    3.3439   -2.8809   -0.4523 H   0  0  0  0  0  0  0  0  0  0  0  0
   -1.2102   -1.2388    2.4960 H   0  0  0  0  0  0  0  0  0  0  0  0
   -1.2581    0.5175    2.5561 H   0  0  0  0  0  0  0  0  0  0  0  0
   -4.1526   -1.1751    0.7992 H   0  0  0  0  0  0  0  0  0  0  0  0
   -3.4596   -1.2361    2.3955 H   0  0  0  0  0  0  0  0  0  0  0  0
   -3.8593    1.2115    2.6911 H   0  0  0  0  0  0  0  0  0  0  0  0
   -5.3367    0.3350    2.2698 H   0  0  0  0  0  0  0  0  0  0  0  0
   -4.0878    0.5121   -1.0514 H   0  0  0  0  0  0  0  0  0  0  0  0
   -3.5468    2.2062   -1.0407 H   0  0  0  0  0  0  0  0  0  0  0  0
   -1.6020    0.7370   -0.8062 H   0  0  0  0  0  0  0  0  0  0  0  0
   -1.8485    1.7250    0.6404 H   0  0  0  0  0  0  0  0  0  0  0  0
   -6.3062    2.4944    2.5043 H   0  0  0  0  0  0  0  0  0  0  0  0
   -8.5409    3.3939    1.9608 H   0  0  0  0  0  0  0  0  0  0  0  0
   -9.2476    3.5365   -0.4353 H   0  0  0  0  0  0  0  0  0  0  0  0
   -7.6378    2.7497   -2.1760 H   0  0  0  0  0  0  0  0  0  0  0  0
  1  2  1  0
  2  3  1  0
  3  4  1  0
  4  5  2  0
  4  6  1  0
  6  7  2  0
  7  8  1  0
  7  9  1  0
  6 10  1  0
 10 11  2  0
 10 12  1  0
 12 13  1  0
 12 14  2  0
 14 15  1  0
 15 16  2  0
 15 17  1  0
 17 18  1  0
 18 19  1  0
 19 20  1  0
 20 21  1  0
 21 22  1  0
 22 23  1  0
 21 24  1  0
 24 25  2  0
 25 26  1  0
 26 27  2  0
 27 28  1  0
 28 29  2  0
 11  8  1  0
 16 11  1  0
 23 18  1  0
 29 24  1  0
  1 30  1  0
  1 31  1  0
  1 32  1  0
  2 33  1  0
  2 34  1  0
  9 35  1  0
  9 36  1  0
  9 37  1  0
 13 38  1  0
 13 39  1  0
 17 40  1  0
 17 41  1  0
 19 42  1  0
 19 43  1  0
 20 44  1  0
 20 45  1  0
 22 46  1  0
 22 47  1  0
 23 48  1  0
 23 49  1  0
 25 50  1  0
 26 51  1  0
 27 52  1  0
 28 53  1  0
M  END
>  <mol_id>  (8) 
Z52665806

>  <drugclip_rank>  (8) 
8

>  <conformer>  (8) 
33

>  <align_rmsd>  (8) 
0.973

$$$$
STK397963
     RDKit          3D

 57 60  0  0  0  0  0  0  0  0999 V2000
   -4.9097   -0.4116    2.9474 C   0  0  0  0  0  0  0  0  0  0  0  0
   -6.0581    0.4826    3.4034 C   0  0  0  0  0  0  0  0  0  0  0  0
   -6.8975    0.9751    2.2276 C   0  0  0  0  0  0  0  0  0  0  0  0
   -6.1006    1.0318    0.9275 C   0  0  0  0  0  0  0  0  0  0  0  0
   -4.6255    1.3309    1.1751 C   0  0  0  0  0  0  0  0  0  0  0  0
   -4.0103    0.3186    2.0394 N   0  0  0  0  0  0  0  0  0  0  0  0
   -2.7258   -0.1571    1.8553 C   0  0  0  0  0  0  0  0  0  0  0  0
   -2.3599   -1.3202    2.2902 N   0  0  0  0  0  0  0  0  0  0  0  0
   -1.8300    0.6498    1.2066 N   0  0  0  0  0  0  0  0  0  0  0  0
   -0.5088    0.3457    0.9970 C   0  0  0  0  0  0  0  0  0  0  0  0
    0.2394    1.1785    0.5013 O   0  0  0  0  0  0  0  0  0  0  0  0
   -0.0835   -1.0006    1.4170 C   0  0  0  0  0  0  0  0  0  0  0  0
   -1.0525   -1.7590    2.0647 C   0  0  0  0  0  0  0  0  0  0  0  0
    1.1992   -1.5445    1.2273 C   0  0  0  0  0  0  0  0  0  0  0  0
    1.4319   -2.8388    1.7200 C   0  0  0  0  0  0  0  0  0  0  0  0
    0.4084   -3.5178    2.3566 C   0  0  0  0  0  0  0  0  0  0  0  0
   -0.8231   -3.0067    2.5351 N   0  0  0  0  0  0  0  0  0  0  0  0
    2.3000   -0.8599    0.5360 C   0  0  0  0  0  0  0  0  0  0  0  0
    2.2902   -0.7035   -0.8583 C   0  0  0  0  0  0  0  0  0  0  0  0
    3.3513   -0.0758   -1.5227 C   0  0  0  0  0  0  0  0  0  0  0  0
    4.4456    0.3995   -0.8022 C   0  0  0  0  0  0  0  0  0  0  0  0
    4.4736    0.2331    0.5831 C   0  0  0  0  0  0  0  0  0  0  0  0
    3.4114   -0.3867    1.2481 C   0  0  0  0  0  0  0  0  0  0  0  0
    5.5437    1.0225   -1.3281 O   0  0  0  0  0  0  0  0  0  0  0  0
    5.4504    1.4502   -2.6850 C   0  0  0  0  0  0  0  0  0  0  0  0
    6.7024    2.2479   -3.0581 C   0  0  0  0  0  0  0  0  0  0  0  0
    6.7291    3.6900   -2.5111 C   0  0  0  0  0  0  0  0  0  0  0  0
    7.9231    4.4398   -3.1069 C   0  0  0  0  0  0  0  0  0  0  0  0
    6.7924    3.7565   -0.9853 C   0  0  0  0  0  0  0  0  0  0  0  0
   -5.2947   -1.3073    2.4455 H   0  0  0  0  0  0  0  0  0  0  0  0
   -4.3611   -0.7394    3.8389 H   0  0  0  0  0  0  0  0  0  0  0  0
   -5.6486    1.3509    3.9367 H   0  0  0  0  0  0  0  0  0  0  0  0
   -6.6967   -0.0501    4.1161 H   0  0  0  0  0  0  0  0  0  0  0  0
   -7.2965    1.9678    2.4676 H   0  0  0  0  0  0  0  0  0  0  0  0
   -7.7649    0.3194    2.0851 H   0  0  0  0  0  0  0  0  0  0  0  0
   -6.5341    1.7854    0.2600 H   0  0  0  0  0  0  0  0  0  0  0  0
   -6.1892    0.0669    0.4107 H   0  0  0  0  0  0  0  0  0  0  0  0
   -4.5084    2.3177    1.6385 H   0  0  0  0  0  0  0  0  0  0  0  0
   -4.1265    1.3634    0.1998 H   0  0  0  0  0  0  0  0  0  0  0  0
   -2.0919    1.5902    0.9637 H   0  0  0  0  0  0  0  0  0  0  0  0
    2.4010   -3.3165    1.6018 H   0  0  0  0  0  0  0  0  0  0  0  0
    0.5568   -4.5201    2.7485 H   0  0  0  0  0  0  0  0  0  0  0  0
    1.4452   -1.0630   -1.4420 H   0  0  0  0  0  0  0  0  0  0  0  0
    3.2885    0.0220   -2.6010 H   0  0  0  0  0  0  0  0  0  0  0  0
    5.3249    0.5990    1.1518 H   0  0  0  0  0  0  0  0  0  0  0  0
    3.4570   -0.4903    2.3300 H   0  0  0  0  0  0  0  0  0  0  0  0
    4.5578    2.0670   -2.8414 H   0  0  0  0  0  0  0  0  0  0  0  0
    5.4047    0.5680   -3.3338 H   0  0  0  0  0  0  0  0  0  0  0  0
    7.5951    1.7112   -2.7129 H   0  0  0  0  0  0  0  0  0  0  0  0
    6.7535    2.2949   -4.1534 H   0  0  0  0  0  0  0  0  0  0  0  0
    5.8176    4.2059   -2.8365 H   0  0  0  0  0  0  0  0  0  0  0  0
    8.8691    3.9660   -2.8301 H   0  0  0  0  0  0  0  0  0  0  0  0
    7.9465    5.4760   -2.7560 H   0  0  0  0  0  0  0  0  0  0  0  0
    7.8629    4.4617   -4.1993 H   0  0  0  0  0  0  0  0  0  0  0  0
    7.6210    3.1564   -0.5952 H   0  0  0  0  0  0  0  0  0  0  0  0
    6.9339    4.7883   -0.6459 H   0  0  0  0  0  0  0  0  0  0  0  0
    5.8635    3.3991   -0.5328 H   0  0  0  0  0  0  0  0  0  0  0  0
  1  2  1  0
  2  3  1  0
  3  4  1  0
  4  5  1  0
  5  6  1  0
  6  7  1  0
  7  8  2  0
  7  9  1  0
  9 10  1  0
 10 11  2  0
 10 12  1  0
 12 13  2  0
 12 14  1  0
 14 15  2  0
 15 16  1  0
 16 17  2  0
 14 18  1  0
 18 19  2  0
 19 20  1  0
 20 21  2  0
 21 22  1  0
 22 23  2  0
 21 24  1  0
 24 25  1  0
 25 26  1  0
 26 27  1  0
 27 28  1  0
 27 29  1  0
  6  1  1  0
 13  8  1  0
 17 13  1  0
 23 18  1  0
  1 30  1  0
  1 31  1  0
  2 32  1  0
  2 33  1  0
  3 34  1  0
  3 35  1  0
  4 36  1  0
  4 37  1  0
  5 38  1  0
  5 39  1  0
  9 40  1  0
 15 41  1  0
 16 42  1  0
 19 43  1  0
 20 44  1  0
 22 45  1  0
 23 46  1  0
 25 47  1  0
 25 48  1  0
 26 49  1  0
 26 50  1  0
 27 51  1  0
 28 52  1  0
 28 53  1  0
 28 54  1  0
 29 55  1  0
 29 56  1  0
 29 57  1  0
M  END
>  <mol_id>  (9) 
STK397963

>  <drugclip_rank>  (9) 
9

>  <conformer>  (9) 
26

>  <align_rmsd>  (9) 
0.57

$$$$
8020-4802
     RDKit          3D

 49 52  0  0  0  0  0  0  0  0999 V2000
    4.9654   -5.2029    0.7673 C   0  0  0  0  0  0  0  0  0  0  0  0
    6.1201   -5.9694    1.4049 C   0  0  0  0  0  0  0  0  0  0  0  0
    7.1705   -6.3821    0.3785 C   0  0  0  0  0  0  0  0  0  0  0  0
    7.2853   -5.3837   -0.7700 C   0  0  0  0  0  0  0  0  0  0  0  0
    6.8384   -3.9849   -0.3578 C   0  0  0  0  0  0  0  0  0  0  0  0
    5.4321   -3.9969    0.0779 N   0  0  0  0  0  0  0  0  0  0  0  0
    4.7001   -2.8266   -0.0008 C   0  0  0  0  0  0  0  0  0  0  0  0
    5.2612   -1.6895   -0.2640 N   0  0  0  0  0  0  0  0  0  0  0  0
    3.3457   -2.8976    0.1941 N   0  0  0  0  0  0  0  0  0  0  0  0
    2.4841   -1.8321    0.1228 C   0  0  0  0  0  0  0  0  0  0  0  0
    1.2803   -2.0001    0.2817 O   0  0  0  0  0  0  0  0  0  0  0  0
    3.1016   -0.5233   -0.1511 C   0  0  0  0  0  0  0  0  0  0  0  0
    4.4789   -0.5339   -0.3332 C   0  0  0  0  0  0  0  0  0  0  0  0
    2.4107    0.6945   -0.2551 C   0  0  0  0  0  0  0  0  0  0  0  0
    3.1544    1.8521   -0.5143 C   0  0  0  0  0  0  0  0  0  0  0  0
    4.5244    1.7457   -0.6775 C   0  0  0  0  0  0  0  0  0  0  0  0
    5.1969    0.5824   -0.5961 N   0  0  0  0  0  0  0  0  0  0  0  0
    0.9580    0.8144   -0.0599 C   0  0  0  0  0  0  0  0  0  0  0  0
    0.1475    1.4412   -0.9281 C   0  0  0  0  0  0  0  0  0  0  0  0
   -1.3079    1.5299   -0.7508 C   0  0  0  0  0  0  0  0  0  0  0  0
   -2.0671    0.4488   -0.2857 C   0  0  0  0  0  0  0  0  0  0  0  0
   -3.4580    0.5518   -0.1552 C   0  0  0  0  0  0  0  0  0  0  0  0
   -4.1086    1.7359   -0.4990 C   0  0  0  0  0  0  0  0  0  0  0  0
   -3.3567    2.8101   -0.9790 C   0  0  0  0  0  0  0  0  0  0  0  0
   -1.9684    2.7084   -1.1107 C   0  0  0  0  0  0  0  0  0  0  0  0
   -5.4538    1.9687   -0.4203 O   0  0  0  0  0  0  0  0  0  0  0  0
   -6.2608    0.9052    0.0694 C   0  0  0  0  0  0  0  0  0  0  0  0
    4.2626   -4.9415    1.5669 H   0  0  0  0  0  0  0  0  0  0  0  0
    4.4326   -5.8417    0.0534 H   0  0  0  0  0  0  0  0  0  0  0  0
    5.7451   -6.8564    1.9279 H   0  0  0  0  0  0  0  0  0  0  0  0
    6.5939   -5.3355    2.1658 H   0  0  0  0  0  0  0  0  0  0  0  0
    8.1384   -6.4873    0.8832 H   0  0  0  0  0  0  0  0  0  0  0  0
    6.9285   -7.3700   -0.0313 H   0  0  0  0  0  0  0  0  0  0  0  0
    6.6603   -5.7276   -1.6046 H   0  0  0  0  0  0  0  0  0  0  0  0
    8.3164   -5.3614   -1.1401 H   0  0  0  0  0  0  0  0  0  0  0  0
    6.9652   -3.3242   -1.2238 H   0  0  0  0  0  0  0  0  0  0  0  0
    7.4715   -3.5988    0.4501 H   0  0  0  0  0  0  0  0  0  0  0  0
    2.9054   -3.7907    0.3343 H   0  0  0  0  0  0  0  0  0  0  0  0
    2.6823    2.8276   -0.5804 H   0  0  0  0  0  0  0  0  0  0  0  0
    5.1357    2.6205   -0.8808 H   0  0  0  0  0  0  0  0  0  0  0  0
    0.5604    0.3358    0.8329 H   0  0  0  0  0  0  0  0  0  0  0  0
    0.5413    1.9160   -1.8234 H   0  0  0  0  0  0  0  0  0  0  0  0
   -1.5852   -0.4936   -0.0299 H   0  0  0  0  0  0  0  0  0  0  0  0
   -3.9979   -0.3144    0.2117 H   0  0  0  0  0  0  0  0  0  0  0  0
   -3.8565    3.7353   -1.2549 H   0  0  0  0  0  0  0  0  0  0  0  0
   -1.4117    3.5623   -1.4889 H   0  0  0  0  0  0  0  0  0  0  0  0
   -5.9895    0.6444    1.0978 H   0  0  0  0  0  0  0  0  0  0  0  0
   -7.2994    1.2499    0.0767 H   0  0  0  0  0  0  0  0  0  0  0  0
   -6.2048    0.0319   -0.5888 H   0  0  0  0  0  0  0  0  0  0  0  0
  1  2  1  0
  2  3  1  0
  3  4  1  0
  4  5  1  0
  5  6  1  0
  6  7  1  0
  7  8  2  0
  7  9  1  0
  9 10  1  0
 10 11  2  0
 10 12  1  0
 12 13  2  0
 12 14  1  0
 14 15  2  0
 15 16  1  0
 16 17  2  0
 14 18  1  0
 18 19  2  0
 19 20  1  0
 20 21  2  0
 21 22  1  0
 22 23  2  0
 23 24  1  0
 24 25  2  0
 23 26  1  0
 26 27  1  0
  6  1  1  0
 13  8  1  0
 17 13  1  0
 25 20  1  0
  1 28  1  0
  1 29  1  0
  2 30  1  0
  2 31  1  0
  3 32  1  0
  3 33  1  0
  4 34  1  0
  4 35  1  0
  5 36  1  0
  5 37  1  0
  9 38  1  0
 15 39  1  0
 16 40  1  0
 18 41  1  0
 19 42  1  0
 21 43  1  0
 22 44  1  0
 24 45  1  0
 25 46  1  0
 27 47  1  0
 27 48  1  0
 27 49  1  0
M  END
>  <mol_id>  (10) 
8020-4802

>  <drugclip_rank>  (10) 
10

>  <conformer>  (10) 
5

>  <align_rmsd>  (10) 
0.678

$$$$
STL433508
     RDKit          3D

 49 52  0  0  0  0  0  0  0  0999 V2000
    4.9654   -5.2029    0.7673 C   0  0  0  0  0  0  0  0  0  0  0  0
    6.1201   -5.9694    1.4049 C   0  0  0  0  0  0  0  0  0  0  0  0
    7.1705   -6.3821    0.3785 C   0  0  0  0  0  0  0  0  0  0  0  0
    7.2853   -5.3837   -0.7700 C   0  0  0  0  0  0  0  0  0  0  0  0
    6.8384   -3.9849   -0.3578 C   0  0  0  0  0  0  0  0  0  0  0  0
    5.4321   -3.9969    0.0779 N   0  0  0  0  0  0  0  0  0  0  0  0
    4.7001   -2.8266   -0.0008 C   0  0  0  0  0  0  0  0  0  0  0  0
    5.2612   -1.6895   -0.2640 N   0  0  0  0  0  0  0  0  0  0  0  0
    3.3457   -2.8976    0.1941 N   0  0  0  0  0  0  0  0  0  0  0  0
    2.4841   -1.8321    0.1228 C   0  0  0  0  0  0  0  0  0  0  0  0
    1.2803   -2.0001    0.2817 O   0  0  0  0  0  0  0  0  0  0  0  0
    3.1016   -0.5233   -0.1511 C   0  0  0  0  0  0  0  0  0  0  0  0
    4.4789   -0.5339   -0.3332 C   0  0  0  0  0  0  0  0  0  0  0  0
    2.4107    0.6945   -0.2551 C   0  0  0  0  0  0  0  0  0  0  0  0
    3.1544    1.8521   -0.5143 C   0  0  0  0  0  0  0  0  0  0  0  0
    4.5244    1.7457   -0.6775 C   0  0  0  0  0  0  0  0  0  0  0  0
    5.1969    0.5824   -0.5961 N   0  0  0  0  0  0  0  0  0  0  0  0
    0.9580    0.8144   -0.0599 C   0  0  0  0  0  0  0  0  0  0  0  0
    0.1475    1.4412   -0.9281 C   0  0  0  0  0  0  0  0  0  0  0  0
   -1.3079    1.5299   -0.7508 C   0  0  0  0  0  0  0  0  0  0  0  0
   -2.0671    0.4488   -0.2857 C   0  0  0  0  0  0  0  0  0  0  0  0
   -3.4580    0.5518   -0.1552 C   0  0  0  0  0  0  0  0  0  0  0  0
   -4.1086    1.7359   -0.4990 C   0  0  0  0  0  0  0  0  0  0  0  0
   -3.3567    2.8101   -0.9790 C   0  0  0  0  0  0  0  0  0  0  0  0
   -1.9684    2.7084   -1.1107 C   0  0  0  0  0  0  0  0  0  0  0  0
   -5.4538    1.9687   -0.4203 O   0  0  0  0  0  0  0  0  0  0  0  0
   -6.2608    0.9052    0.0694 C   0  0  0  0  0  0  0  0  0  0  0  0
    4.2626   -4.9415    1.5669 H   0  0  0  0  0  0  0  0  0  0  0  0
    4.4326   -5.8417    0.0534 H   0  0  0  0  0  0  0  0  0  0  0  0
    5.7451   -6.8564    1.9279 H   0  0  0  0  0  0  0  0  0  0  0  0
    6.5939   -5.3355    2.1658 H   0  0  0  0  0  0  0  0  0  0  0  0
    8.1384   -6.4873    0.8832 H   0  0  0  0  0  0  0  0  0  0  0  0
    6.9285   -7.3700   -0.0313 H   0  0  0  0  0  0  0  0  0  0  0  0
    6.6603   -5.7276   -1.6046 H   0  0  0  0  0  0  0  0  0  0  0  0
    8.3164   -5.3614   -1.1401 H   0  0  0  0  0  0  0  0  0  0  0  0
    6.9652   -3.3242   -1.2238 H   0  0  0  0  0  0  0  0  0  0  0  0
    7.4715   -3.5988    0.4501 H   0  0  0  0  0  0  0  0  0  0  0  0
    2.9054   -3.7907    0.3343 H   0  0  0  0  0  0  0  0  0  0  0  0
    2.6823    2.8276   -0.5804 H   0  0  0  0  0  0  0  0  0  0  0  0
    5.1357    2.6205   -0.8808 H   0  0  0  0  0  0  0  0  0  0  0  0
    0.5604    0.3358    0.8329 H   0  0  0  0  0  0  0  0  0  0  0  0
    0.5413    1.9160   -1.8234 H   0  0  0  0  0  0  0  0  0  0  0  0
   -1.5852   -0.4936   -0.0299 H   0  0  0  0  0  0  0  0  0  0  0  0
   -3.9979   -0.3144    0.2117 H   0  0  0  0  0  0  0  0  0  0  0  0
   -3.8565    3.7353   -1.2549 H   0  0  0  0  0  0  0  0  0  0  0  0
   -1.4117    3.5623   -1.4889 H   0  0  0  0  0  0  0  0  0  0  0  0
   -5.9895    0.6444    1.0978 H   0  0  0  0  0  0  0  0  0  0  0  0
   -7.2994    1.2499    0.0767 H   0  0  0  0  0  0  0  0  0  0  0  0
   -6.2048    0.0319   -0.5888 H   0  0  0  0  0  0  0  0  0  0  0  0
  1  2  1  0
  2  3  1  0
  3  4  1  0
  4  5  1  0
  5  6  1  0
  6  7  1  0
  7  8  2  0
  7  9  1  0
  9 10  1  0
 10 11  2  0
 10 12  1  0
 12 13  2  0
 12 14  1  0
 14 15  2  0
 15 16  1  0
 16 17  2  0
 14 18  1  0
 18 19  2  0
 19 20  1  0
 20 21  2  0
 21 22  1  0
 22 23  2  0
 23 24  1  0
 24 25  2  0
 23 26  1  0
 26 27  1  0
  6  1  1  0
 13  8  1  0
 17 13  1  0
 25 20  1  0
  1 28  1  0
  1 29  1  0
  2 30  1  0
  2 31  1  0
  3 32  1  0
  3 33  1  0
  4 34  1  0
  4 35  1  0
  5 36  1  0
  5 37  1  0
  9 38  1  0
 15 39  1  0
 16 40  1  0
 18 41  1  0
 19 42  1  0
 21 43  1  0
 22 44  1  0
 24 45  1  0
 25 46  1  0
 27 47  1  0
 27 48  1  0
 27 49  1  0
M  END
>  <mol_id>  (11) 
STL433508

>  <drugclip_rank>  (11) 
11

>  <conformer>  (11) 
5

>  <align_rmsd>  (11) 
0.678

$$$$
STL334491
     RDKit          3D

 53 56  0  0  0  0  0  0  0  0999 V2000
    6.4696    0.9343   -0.0393 C   0  0  0  0  0  0  0  0  0  0  0  0
    6.9665    2.2614    0.1428 O   0  0  0  0  0  0  0  0  0  0  0  0
    6.2305    3.2848   -0.5471 C   0  0  0  0  0  0  0  0  0  0  0  0
    6.2927    3.0971   -2.0719 C   0  0  0  0  0  0  0  0  0  0  0  0
    6.9250    4.6087   -0.1961 C   0  0  0  0  0  0  0  0  0  0  0  0
    4.7875    3.3193   -0.0171 C   0  0  0  0  0  0  0  0  0  0  0  0
    4.1678    1.9487    0.0219 C   0  0  0  0  0  0  0  0  0  0  0  0
    2.8130    1.8911    0.0788 N   0  0  0  0  0  0  0  0  0  0  0  0
    4.9764    0.8241    0.0605 C   0  0  0  0  0  0  0  0  0  0  0  0
    4.3404   -0.4111    0.1391 C   0  0  0  0  0  0  0  0  0  0  0  0
    2.9300   -0.4743    0.1935 C   0  0  0  0  0  0  0  0  0  0  0  0
    2.2001    0.7105    0.1711 C   0  0  0  0  0  0  0  0  0  0  0  0
    2.1757   -1.6443    0.2768 C   0  0  0  0  0  0  0  0  0  0  0  0
    2.7708   -2.9096    0.2968 N   0  0  0  0  0  0  0  0  0  0  0  0
    0.8453   -1.6425    0.3639 N   0  0  0  0  0  0  0  0  0  0  0  0
    0.2500   -0.4459    0.3523 C   0  0  0  0  0  0  0  0  0  0  0  0
    0.8788    0.7240    0.2391 N   0  0  0  0  0  0  0  0  0  0  0  0
   -1.5230   -0.4506    0.4475 S   0  0  0  0  0  0  0  0  0  0  0  0
   -1.8037    1.2897    0.9116 C   0  0  0  0  0  0  0  0  0  0  0  0
   -3.2804    1.5811    1.1429 C   0  0  0  0  0  0  0  0  0  0  0  0
   -3.6297    2.3013    2.0758 O   0  0  0  0  0  0  0  0  0  0  0  0
   -4.1152    1.0377    0.1797 N   0  0  0  0  0  0  0  0  0  0  0  0
   -5.5078    1.1956    0.0491 C   0  0  0  0  0  0  0  0  0  0  0  0
   -6.1415    0.4645   -0.9615 C   0  0  0  0  0  0  0  0  0  0  0  0
   -7.5210    0.5756   -1.1596 C   0  0  0  0  0  0  0  0  0  0  0  0
   -8.2895    1.4186   -0.3562 C   0  0  0  0  0  0  0  0  0  0  0  0
   -7.6616    2.1512    0.6497 C   0  0  0  0  0  0  0  0  0  0  0  0
   -6.2782    2.0388    0.8507 C   0  0  0  0  0  0  0  0  0  0  0  0
   -9.6236    1.4351   -0.6538 O   0  0  0  0  0  0  0  0  0  0  0  0
  -10.4420    2.3017    0.1226 C   0  0  0  0  0  0  0  0  0  0  0  0
    6.9357    0.3137    0.7336 H   0  0  0  0  0  0  0  0  0  0  0  0
    6.8086    0.5612   -1.0125 H   0  0  0  0  0  0  0  0  0  0  0  0
    5.8351    3.9448   -2.5939 H   0  0  0  0  0  0  0  0  0  0  0  0
    5.7762    2.1902   -2.4018 H   0  0  0  0  0  0  0  0  0  0  0  0
    7.3319    3.0023   -2.4074 H   0  0  0  0  0  0  0  0  0  0  0  0
    6.4179    5.4659   -0.6515 H   0  0  0  0  0  0  0  0  0  0  0  0
    7.9679    4.6029   -0.5331 H   0  0  0  0  0  0  0  0  0  0  0  0
    6.9546    4.7601    0.8893 H   0  0  0  0  0  0  0  0  0  0  0  0
    4.1696    3.9969   -0.6179 H   0  0  0  0  0  0  0  0  0  0  0  0
    4.7778    3.6906    1.0159 H   0  0  0  0  0  0  0  0  0  0  0  0
    4.9293   -1.3246    0.1748 H   0  0  0  0  0  0  0  0  0  0  0  0
    2.0200   -3.5966    0.3426 H   0  0  0  0  0  0  0  0  0  0  0  0
    3.3578   -3.0642   -0.5153 H   0  0  0  0  0  0  0  0  0  0  0  0
   -1.4522    1.9613    0.1218 H   0  0  0  0  0  0  0  0  0  0  0  0
   -1.2641    1.5051    1.8398 H   0  0  0  0  0  0  0  0  0  0  0  0
   -3.6726    0.3912   -0.4656 H   0  0  0  0  0  0  0  0  0  0  0  0
   -5.5774   -0.2035   -1.6078 H   0  0  0  0  0  0  0  0  0  0  0  0
   -7.9993    0.0020   -1.9504 H   0  0  0  0  0  0  0  0  0  0  0  0
   -8.2123    2.8233    1.3007 H   0  0  0  0  0  0  0  0  0  0  0  0
   -5.8349    2.6315    1.6451 H   0  0  0  0  0  0  0  0  0  0  0  0
  -10.4203    2.0249    1.1821 H   0  0  0  0  0  0  0  0  0  0  0  0
  -10.1519    3.3484   -0.0201 H   0  0  0  0  0  0  0  0  0  0  0  0
  -11.4731    2.1904   -0.2274 H   0  0  0  0  0  0  0  0  0  0  0  0
  1  2  1  0
  2  3  1  0
  3  4  1  0
  3  5  1  0
  3  6  1  0
  6  7  1  0
  7  8  1  0
  7  9  2  0
  9 10  1  0
 10 11  2  0
 11 12  1  0
 11 13  1  0
 13 14  1  0
 13 15  2  0
 15 16  1  0
 16 17  2  0
 16 18  1  0
 18 19  1  0
 19 20  1  0
 20 21  2  0
 20 22  1  0
 22 23  1  0
 23 24  2  0
 24 25  1  0
 25 26  2  0
 26 27  1  0
 27 28  2  0
 26 29  1  0
 29 30  1  0
  9  1  1  0
 12  8  2  0
 17 12  1  0
 28 23  1  0
  1 31  1  0
  1 32  1  0
  4 33  1  0
  4 34  1  0
  4 35  1  0
  5 36  1  0
  5 37  1  0
  5 38  1  0
  6 39  1  0
  6 40  1  0
 10 41  1  0
 14 42  1  0
 14 43  1  0
 19 44  1  0
 19 45  1  0
 22 46  1  0
 24 47  1  0
 25 48  1  0
 27 49  1  0
 28 50  1  0
 30 51  1  0
 30 52  1  0
 30 53  1  0
M  END
>  <mol_id>  (12) 
STL334491

>  <drugclip_rank>  (12) 
12

>  <conformer>  (12) 
12

>  <align_rmsd>  (12) 
0.476

$$$$
OSSL_150434
     RDKit          3D

 55 58  0  0  0  0  0  0  0  0999 V2000
   -4.9781   -0.5237    2.3545 C   0  0  0  0  0  0  0  0  0  0  0  0
   -5.7121   -1.5396    1.4668 C   0  0  0  0  0  0  0  0  0  0  0  0
   -6.3795   -0.8793    0.3740 O   0  0  0  0  0  0  0  0  0  0  0  0
   -5.4335   -0.1508   -0.4256 C   0  0  0  0  0  0  0  0  0  0  0  0
   -4.6973    0.9071    0.4126 C   0  0  0  0  0  0  0  0  0  0  0  0
   -4.0063    0.2575    1.5486 N   0  0  0  0  0  0  0  0  0  0  0  0
   -2.7383   -0.2649    1.3779 C   0  0  0  0  0  0  0  0  0  0  0  0
   -2.4290   -1.4718    1.7221 N   0  0  0  0  0  0  0  0  0  0  0  0
   -1.7991    0.5690    0.8385 N   0  0  0  0  0  0  0  0  0  0  0  0
   -0.4789    0.2451    0.6514 C   0  0  0  0  0  0  0  0  0  0  0  0
    0.3085    1.0861    0.2376 O   0  0  0  0  0  0  0  0  0  0  0  0
   -0.1051   -1.1400    0.9879 C   0  0  0  0  0  0  0  0  0  0  0  0
   -1.1227   -1.9261    1.5179 C   0  0  0  0  0  0  0  0  0  0  0  0
    1.1746   -1.6971    0.8249 C   0  0  0  0  0  0  0  0  0  0  0  0
    1.3545   -3.0336    1.2138 C   0  0  0  0  0  0  0  0  0  0  0  0
    0.2827   -3.7396    1.7304 C   0  0  0  0  0  0  0  0  0  0  0  0
   -0.9466   -3.2153    1.8872 N   0  0  0  0  0  0  0  0  0  0  0  0
    2.3273   -0.9770    0.2723 C   0  0  0  0  0  0  0  0  0  0  0  0
    3.3022   -0.4301    1.1174 C   0  0  0  0  0  0  0  0  0  0  0  0
    4.4165    0.2258    0.5865 C   0  0  0  0  0  0  0  0  0  0  0  0
    4.5812    0.3483   -0.7942 C   0  0  0  0  0  0  0  0  0  0  0  0
    3.6184   -0.1938   -1.6440 C   0  0  0  0  0  0  0  0  0  0  0  0
    2.5023   -0.8535   -1.1139 C   0  0  0  0  0  0  0  0  0  0  0  0
    5.7140    1.0108   -1.1769 O   0  0  0  0  0  0  0  0  0  0  0  0
    5.9207    1.1931   -2.5761 C   0  0  0  0  0  0  0  0  0  0  0  0
    7.2228    1.9683   -2.7901 C   0  0  0  0  0  0  0  0  0  0  0  0
    8.4733    1.3089   -2.1750 C   0  0  0  0  0  0  0  0  0  0  0  0
    9.6902    2.2144   -2.3826 C   0  0  0  0  0  0  0  0  0  0  0  0
    8.7521   -0.0744   -2.7641 C   0  0  0  0  0  0  0  0  0  0  0  0
   -4.4891   -1.0210    3.1995 H   0  0  0  0  0  0  0  0  0  0  0  0
   -5.7059    0.1799    2.7774 H   0  0  0  0  0  0  0  0  0  0  0  0
   -5.0304   -2.2951    1.0604 H   0  0  0  0  0  0  0  0  0  0  0  0
   -6.4770   -2.0594    2.0521 H   0  0  0  0  0  0  0  0  0  0  0  0
   -4.7313   -0.8584   -0.8820 H   0  0  0  0  0  0  0  0  0  0  0  0
   -5.9904    0.3370   -1.2318 H   0  0  0  0  0  0  0  0  0  0  0  0
   -4.0055    1.4724   -0.2196 H   0  0  0  0  0  0  0  0  0  0  0  0
   -5.4230    1.6222    0.8184 H   0  0  0  0  0  0  0  0  0  0  0  0
   -2.0352    1.5356    0.6824 H   0  0  0  0  0  0  0  0  0  0  0  0
    2.3208   -3.5202    1.1114 H   0  0  0  0  0  0  0  0  0  0  0  0
    0.3886   -4.7758    2.0395 H   0  0  0  0  0  0  0  0  0  0  0  0
    3.1987   -0.5039    2.1975 H   0  0  0  0  0  0  0  0  0  0  0  0
    5.1602    0.6500    1.2564 H   0  0  0  0  0  0  0  0  0  0  0  0
    3.6994   -0.1197   -2.7228 H   0  0  0  0  0  0  0  0  0  0  0  0
    1.7621   -1.2660   -1.7962 H   0  0  0  0  0  0  0  0  0  0  0  0
    5.9731    0.2253   -3.0872 H   0  0  0  0  0  0  0  0  0  0  0  0
    5.0965    1.7794   -3.0008 H   0  0  0  0  0  0  0  0  0  0  0  0
    7.1051    2.9617   -2.3377 H   0  0  0  0  0  0  0  0  0  0  0  0
    7.3712    2.1218   -3.8660 H   0  0  0  0  0  0  0  0  0  0  0  0
    8.3244    1.1968   -1.0938 H   0  0  0  0  0  0  0  0  0  0  0  0
   10.5818    1.7812   -1.9171 H   0  0  0  0  0  0  0  0  0  0  0  0
    9.5246    3.1985   -1.9315 H   0  0  0  0  0  0  0  0  0  0  0  0
    9.9007    2.3601   -3.4476 H   0  0  0  0  0  0  0  0  0  0  0  0
    9.6846   -0.4864   -2.3633 H   0  0  0  0  0  0  0  0  0  0  0  0
    8.8436   -0.0305   -3.8546 H   0  0  0  0  0  0  0  0  0  0  0  0
    7.9543   -0.7808   -2.5158 H   0  0  0  0  0  0  0  0  0  0  0  0
  1  2  1  0
  2  3  1  0
  3  4  1  0
  4  5  1  0
  5  6  1  0
  6  7  1  0
  7  8  2  0
  7  9  1  0
  9 10  1  0
 10 11  2  0
 10 12  1  0
 12 13  2  0
 12 14  1  0
 14 15  2  0
 15 16  1  0
 16 17  2  0
 14 18  1  0
 18 19  2  0
 19 20  1  0
 20 21  2  0
 21 22  1  0
 22 23  2  0
 21 24  1  0
 24 25  1  0
 25 26  1  0
 26 27  1  0
 27 28  1  0
 27 29  1  0
  6  1  1  0
 13  8  1  0
 17 13  1  0
 23 18  1  0
  1 30  1  0
  1 31  1  0
  2 32  1  0
  2 33  1  0
  4 34  1  0
  4 35  1  0
  5 36  1  0
  5 37  1  0
  9 38  1  0
 15 39  1  0
 16 40  1  0
 19 41  1  0
 20 42  1  0
 22 43  1  0
 23 44  1  0
 25 45  1  0
 25 46  1  0
 26 47  1  0
 26 48  1  0
 27 49  1  0
 28 50  1  0
 28 51  1  0
 28 52  1  0
 29 53  1  0
 29 54  1  0
 29 55  1  0
M  END
>  <mol_id>  (13) 
OSSL_150434

>  <drugclip_rank>  (13) 
13

>  <conformer>  (13) 
1

>  <align_rmsd>  (13) 
0.618

$$$$
D718-0906
     RDKit          3D

 55 58  0  0  0  0  0  0  0  0999 V2000
   -4.9781   -0.5237    2.3545 C   0  0  0  0  0  0  0  0  0  0  0  0
   -5.7121   -1.5396    1.4668 C   0  0  0  0  0  0  0  0  0  0  0  0
   -6.3795   -0.8793    0.3740 O   0  0  0  0  0  0  0  0  0  0  0  0
   -5.4335   -0.1508   -0.4256 C   0  0  0  0  0  0  0  0  0  0  0  0
   -4.6973    0.9071    0.4126 C   0  0  0  0  0  0  0  0  0  0  0  0
   -4.0063    0.2575    1.5486 N   0  0  0  0  0  0  0  0  0  0  0  0
   -2.7383   -0.2649    1.3779 C   0  0  0  0  0  0  0  0  0  0  0  0
   -2.4290   -1.4718    1.7221 N   0  0  0  0  0  0  0  0  0  0  0  0
   -1.7991    0.5690    0.8385 N   0  0  0  0  0  0  0  0  0  0  0  0
   -0.4789    0.2451    0.6514 C   0  0  0  0  0  0  0  0  0  0  0  0
    0.3085    1.0861    0.2376 O   0  0  0  0  0  0  0  0  0  0  0  0
   -0.1051   -1.1400    0.9879 C   0  0  0  0  0  0  0  0  0  0  0  0
   -1.1227   -1.9261    1.5179 C   0  0  0  0  0  0  0  0  0  0  0  0
    1.1746   -1.6971    0.8249 C   0  0  0  0  0  0  0  0  0  0  0  0
    1.3545   -3.0336    1.2138 C   0  0  0  0  0  0  0  0  0  0  0  0
    0.2827   -3.7396    1.7304 C   0  0  0  0  0  0  0  0  0  0  0  0
   -0.9466   -3.2153    1.8872 N   0  0  0  0  0  0  0  0  0  0  0  0
    2.3273   -0.9770    0.2723 C   0  0  0  0  0  0  0  0  0  0  0  0
    3.3022   -0.4301    1.1174 C   0  0  0  0  0  0  0  0  0  0  0  0
    4.4165    0.2258    0.5865 C   0  0  0  0  0  0  0  0  0  0  0  0
    4.5812    0.3483   -0.7942 C   0  0  0  0  0  0  0  0  0  0  0  0
    3.6184   -0.1938   -1.6440 C   0  0  0  0  0  0  0  0  0  0  0  0
    2.5023   -0.8535   -1.1139 C   0  0  0  0  0  0  0  0  0  0  0  0
    5.7140    1.0108   -1.1769 O   0  0  0  0  0  0  0  0  0  0  0  0
    5.9207    1.1931   -2.5761 C   0  0  0  0  0  0  0  0  0  0  0  0
    7.2228    1.9683   -2.7901 C   0  0  0  0  0  0  0  0  0  0  0  0
    8.4733    1.3089   -2.1750 C   0  0  0  0  0  0  0  0  0  0  0  0
    9.6902    2.2144   -2.3826 C   0  0  0  0  0  0  0  0  0  0  0  0
    8.7521   -0.0744   -2.7641 C   0  0  0  0  0  0  0  0  0  0  0  0
   -4.4891   -1.0210    3.1995 H   0  0  0  0  0  0  0  0  0  0  0  0
   -5.7059    0.1799    2.7774 H   0  0  0  0  0  0  0  0  0  0  0  0
   -5.0304   -2.2951    1.0604 H   0  0  0  0  0  0  0  0  0  0  0  0
   -6.4770   -2.0594    2.0521 H   0  0  0  0  0  0  0  0  0  0  0  0
   -4.7313   -0.8584   -0.8820 H   0  0  0  0  0  0  0  0  0  0  0  0
   -5.9904    0.3370   -1.2318 H   0  0  0  0  0  0  0  0  0  0  0  0
   -4.0055    1.4724   -0.2196 H   0  0  0  0  0  0  0  0  0  0  0  0
   -5.4230    1.6222    0.8184 H   0  0  0  0  0  0  0  0  0  0  0  0
   -2.0352    1.5356    0.6824 H   0  0  0  0  0  0  0  0  0  0  0  0
    2.3208   -3.5202    1.1114 H   0  0  0  0  0  0  0  0  0  0  0  0
    0.3886   -4.7758    2.0395 H   0  0  0  0  0  0  0  0  0  0  0  0
    3.1987   -0.5039    2.1975 H   0  0  0  0  0  0  0  0  0  0  0  0
    5.1602    0.6500    1.2564 H   0  0  0  0  0  0  0  0  0  0  0  0
    3.6994   -0.1197   -2.7228 H   0  0  0  0  0  0  0  0  0  0  0  0
    1.7621   -1.2660   -1.7962 H   0  0  0  0  0  0  0  0  0  0  0  0
    5.9731    0.2253   -3.0872 H   0  0  0  0  0  0  0  0  0  0  0  0
    5.0965    1.7794   -3.0008 H   0  0  0  0  0  0  0  0  0  0  0  0
    7.1051    2.9617   -2.3377 H   0  0  0  0  0  0  0  0  0  0  0  0
    7.3712    2.1218   -3.8660 H   0  0  0  0  0  0  0  0  0  0  0  0
    8.3244    1.1968   -1.0938 H   0  0  0  0  0  0  0  0  0  0  0  0
   10.5818    1.7812   -1.9171 H   0  0  0  0  0  0  0  0  0  0  0  0
    9.5246    3.1985   -1.9315 H   0  0  0  0  0  0  0  0  0  0  0  0
    9.9007    2.3601   -3.4476 H   0  0  0  0  0  0  0  0  0  0  0  0
    9.6846   -0.4864   -2.3633 H   0  0  0  0  0  0  0  0  0  0  0  0
    8.8436   -0.0305   -3.8546 H   0  0  0  0  0  0  0  0  0  0  0  0
    7.9543   -0.7808   -2.5158 H   0  0  0  0  0  0  0  0  0  0  0  0
  1  2  1  0
  2  3  1  0
  3  4  1  0
  4  5  1  0
  5  6  1  0
  6  7  1  0
  7  8  2  0
  7  9  1  0
  9 10  1  0
 10 11  2  0
 10 12  1  0
 12 13  2  0
 12 14  1  0
 14 15  2  0
 15 16  1  0
 16 17  2  0
 14 18  1  0
 18 19  2  0
 19 20  1  0
 20 21  2  0
 21 22  1  0
 22 23  2  0
 21 24  1  0
 24 25  1  0
 25 26  1  0
 26 27  1  0
 27 28  1  0
 27 29  1  0
  6  1  1  0
 13  8  1  0
 17 13  1  0
 23 18  1  0
  1 30  1  0
  1 31  1  0
  2 32  1  0
  2 33  1  0
  4 34  1  0
  4 35  1  0
  5 36  1  0
  5 37  1  0
  9 38  1  0
 15 39  1  0
 16 40  1  0
 19 41  1  0
 20 42  1  0
 22 43  1  0
 23 44  1  0
 25 45  1  0
 25 46  1  0
 26 47  1  0
 26 48  1  0
 27 49  1  0
 28 50  1  0
 28 51  1  0
 28 52  1  0
 29 53  1  0
 29 54  1  0
 29 55  1  0
M  END
>  <mol_id>  (14) 
D718-0906

>  <drugclip_rank>  (14) 
14

>  <conformer>  (14) 
1

>  <align_rmsd>  (14) 
0.618

$$$$
OSSM_318636
     RDKit          3D

 53 56  0  0  0  0  0  0  0  0999 V2000
    6.4696    0.9343   -0.0393 C   0  0  0  0  0  0  0  0  0  0  0  0
    6.9665    2.2614    0.1428 O   0  0  0  0  0  0  0  0  0  0  0  0
    6.2305    3.2848   -0.5471 C   0  0  0  0  0  0  0  0  0  0  0  0
    6.2927    3.0971   -2.0719 C   0  0  0  0  0  0  0  0  0  0  0  0
    6.9250    4.6087   -0.1961 C   0  0  0  0  0  0  0  0  0  0  0  0
    4.7875    3.3193   -0.0171 C   0  0  0  0  0  0  0  0  0  0  0  0
    4.1678    1.9487    0.0219 C   0  0  0  0  0  0  0  0  0  0  0  0
    2.8130    1.8911    0.0788 N   0  0  0  0  0  0  0  0  0  0  0  0
    4.9764    0.8241    0.0605 C   0  0  0  0  0  0  0  0  0  0  0  0
    4.3404   -0.4111    0.1391 C   0  0  0  0  0  0  0  0  0  0  0  0
    2.9300   -0.4743    0.1935 C   0  0  0  0  0  0  0  0  0  0  0  0
    2.2001    0.7105    0.1711 C   0  0  0  0  0  0  0  0  0  0  0  0
    2.1757   -1.6443    0.2768 C   0  0  0  0  0  0  0  0  0  0  0  0
    2.7708   -2.9096    0.2968 N   0  0  0  0  0  0  0  0  0  0  0  0
    0.8453   -1.6425    0.3639 N   0  0  0  0  0  0  0  0  0  0  0  0
    0.2500   -0.4459    0.3523 C   0  0  0  0  0  0  0  0  0  0  0  0
    0.8788    0.7240    0.2391 N   0  0  0  0  0  0  0  0  0  0  0  0
   -1.5230   -0.4506    0.4475 S   0  0  0  0  0  0  0  0  0  0  0  0
   -1.8037    1.2897    0.9116 C   0  0  0  0  0  0  0  0  0  0  0  0
   -3.2804    1.5811    1.1429 C   0  0  0  0  0  0  0  0  0  0  0  0
   -3.6297    2.3013    2.0758 O   0  0  0  0  0  0  0  0  0  0  0  0
   -4.1152    1.0377    0.1797 N   0  0  0  0  0  0  0  0  0  0  0  0
   -5.5078    1.1956    0.0491 C   0  0  0  0  0  0  0  0  0  0  0  0
   -6.1415    0.4645   -0.9615 C   0  0  0  0  0  0  0  0  0  0  0  0
   -7.5210    0.5756   -1.1596 C   0  0  0  0  0  0  0  0  0  0  0  0
   -8.2895    1.4186   -0.3562 C   0  0  0  0  0  0  0  0  0  0  0  0
   -7.6616    2.1512    0.6497 C   0  0  0  0  0  0  0  0  0  0  0  0
   -6.2782    2.0388    0.8507 C   0  0  0  0  0  0  0  0  0  0  0  0
   -9.6236    1.4351   -0.6538 O   0  0  0  0  0  0  0  0  0  0  0  0
  -10.4420    2.3017    0.1226 C   0  0  0  0  0  0  0  0  0  0  0  0
    6.9357    0.3137    0.7336 H   0  0  0  0  0  0  0  0  0  0  0  0
    6.8086    0.5612   -1.0125 H   0  0  0  0  0  0  0  0  0  0  0  0
    5.8351    3.9448   -2.5939 H   0  0  0  0  0  0  0  0  0  0  0  0
    5.7762    2.1902   -2.4018 H   0  0  0  0  0  0  0  0  0  0  0  0
    7.3319    3.0023   -2.4074 H   0  0  0  0  0  0  0  0  0  0  0  0
    6.4179    5.4659   -0.6515 H   0  0  0  0  0  0  0  0  0  0  0  0
    7.9679    4.6029   -0.5331 H   0  0  0  0  0  0  0  0  0  0  0  0
    6.9546    4.7601    0.8893 H   0  0  0  0  0  0  0  0  0  0  0  0
    4.1696    3.9969   -0.6179 H   0  0  0  0  0  0  0  0  0  0  0  0
    4.7778    3.6906    1.0159 H   0  0  0  0  0  0  0  0  0  0  0  0
    4.9293   -1.3246    0.1748 H   0  0  0  0  0  0  0  0  0  0  0  0
    2.0200   -3.5966    0.3426 H   0  0  0  0  0  0  0  0  0  0  0  0
    3.3578   -3.0642   -0.5153 H   0  0  0  0  0  0  0  0  0  0  0  0
   -1.4522    1.9613    0.1218 H   0  0  0  0  0  0  0  0  0  0  0  0
   -1.2641    1.5051    1.8398 H   0  0  0  0  0  0  0  0  0  0  0  0
   -3.6726    0.3912   -0.4656 H   0  0  0  0  0  0  0  0  0  0  0  0
   -5.5774   -0.2035   -1.6078 H   0  0  0  0  0  0  0  0  0  0  0  0
   -7.9993    0.0020   -1.9504 H   0  0  0  0  0  0  0  0  0  0  0  0
   -8.2123    2.8233    1.3007 H   0  0  0  0  0  0  0  0  0  0  0  0
   -5.8349    2.6315    1.6451 H   0  0  0  0  0  0  0  0  0  0  0  0
  -10.4203    2.0249    1.1821 H   0  0  0  0  0  0  0  0  0  0  0  0
  -10.1519    3.3484   -0.0201 H   0  0  0  0  0  0  0  0  0  0  0  0
  -11.4731    2.1904   -0.2274 H   0  0  0  0  0  0  0  0  0  0  0  0
  1  2  1  0
  2  3  1  0
  3  4  1  0
  3  5  1  0
  3  6  1  0
  6  7  1  0
  7  8  1  0
  7  9  2  0
  9 10  1  0
 10 11  2  0
 11 12  1  0
 11 13  1  0
 13 14  1  0
 13 15  2  0
 15 16  1  0
 16 17  2  0
 16 18  1  0
 18 19  1  0
 19 20  1  0
 20 21  2  0
 20 22  1  0
 22 23  1  0
 23 24  2  0
 24 25  1  0
 25 26  2  0
 26 27  1  0
 27 28  2  0
 26 29  1  0
 29 30  1  0
  9  1  1  0
 12  8  2  0
 17 12  1  0
 28 23  1  0
  1 31  1  0
  1 32  1  0
  4 33  1  0
  4 34  1  0
  4 35  1  0
  5 36  1  0
  5 37  1  0
  5 38  1  0
  6 39  1  0
  6 40  1  0
 10 41  1  0
 14 42  1  0
 14 43  1  0
 19 44  1  0
 19 45  1  0
 22 46  1  0
 24 47  1  0
 25 48  1  0
 27 49  1  0
 28 50  1  0
 30 51  1  0
 30 52  1  0
 30 53  1  0
M  END
>  <mol_id>  (15) 
OSSM_318636

>  <drugclip_rank>  (15) 
15

>  <conformer>  (15) 
12

>  <align_rmsd>  (15) 
0.476

$$$$
OSSL_404781
     RDKit          3D

 46 49  0  0  0  0  0  0  0  0999 V2000
    3.8145    2.2028   -0.2760 C   0  0  0  0  0  0  0  0  0  0  0  0
    3.6047    0.7774   -0.2635 N   0  0  0  0  0  0  0  0  0  0  0  0
    4.5589   -0.1912   -0.4990 C   0  0  0  0  0  0  0  0  0  0  0  0
    5.9789    0.1171   -0.8067 C   0  0  0  0  0  0  0  0  0  0  0  0
    4.0350   -1.4015   -0.4114 N   0  0  0  0  0  0  0  0  0  0  0  0
    2.7054   -1.2003   -0.1030 C   0  0  0  0  0  0  0  0  0  0  0  0
    2.4178    0.1467   -0.0119 C   0  0  0  0  0  0  0  0  0  0  0  0
    1.6453   -2.0963    0.1184 C   0  0  0  0  0  0  0  0  0  0  0  0
    0.4267   -1.5580    0.4061 N   0  0  0  0  0  0  0  0  0  0  0  0
    0.2823   -0.2245    0.4743 C   0  0  0  0  0  0  0  0  0  0  0  0
    1.2288    0.7013    0.2628 N   0  0  0  0  0  0  0  0  0  0  0  0
   -0.9932    0.2388    0.7384 N   0  0  0  0  0  0  0  0  0  0  0  0
    1.8691   -3.4833    0.0257 N   0  0  0  0  0  0  0  0  0  0  0  0
    1.0310   -4.5237    0.2080 C   0  0  0  0  0  0  0  0  0  0  0  0
   -0.2833   -4.5177    0.5981 C   0  0  0  0  0  0  0  0  0  0  0  0
    1.3446   -5.8891    0.0401 C   0  0  0  0  0  0  0  0  0  0  0  0
    0.3079   -6.6921    0.3028 N   0  0  0  0  0  0  0  0  0  0  0  0
   -0.6788   -5.8264    0.6302 N   0  0  0  0  0  0  0  0  0  0  0  0
   -1.9857   -6.3277    1.0345 C   0  0  0  0  0  0  0  0  0  0  0  0
   -3.0516   -6.0243    0.0104 C   0  0  0  0  0  0  0  0  0  0  0  0
   -3.0045   -6.6105   -1.2623 C   0  0  0  0  0  0  0  0  0  0  0  0
   -3.9926   -6.3340   -2.2094 C   0  0  0  0  0  0  0  0  0  0  0  0
   -5.0542   -5.4781   -1.8979 C   0  0  0  0  0  0  0  0  0  0  0  0
   -6.0984   -5.1540   -2.9247 C   0  0  0  0  0  0  0  0  0  0  0  0
   -5.0981   -4.8830   -0.6324 C   0  0  0  0  0  0  0  0  0  0  0  0
   -4.1089   -5.1566    0.3155 C   0  0  0  0  0  0  0  0  0  0  0  0
    2.8705    2.7249   -0.1026 H   0  0  0  0  0  0  0  0  0  0  0  0
    4.2136    2.4869   -1.2530 H   0  0  0  0  0  0  0  0  0  0  0  0
    4.5237    2.4545    0.5163 H   0  0  0  0  0  0  0  0  0  0  0  0
    6.0578    0.7067   -1.7254 H   0  0  0  0  0  0  0  0  0  0  0  0
    6.5485   -0.8070   -0.9478 H   0  0  0  0  0  0  0  0  0  0  0  0
    6.4400    0.6768    0.0130 H   0  0  0  0  0  0  0  0  0  0  0  0
   -1.6603   -0.4717    0.4691 H   0  0  0  0  0  0  0  0  0  0  0  0
   -1.1108    1.1574    0.3362 H   0  0  0  0  0  0  0  0  0  0  0  0
    2.8413   -3.6527   -0.2281 H   0  0  0  0  0  0  0  0  0  0  0  0
   -0.9623   -3.7161    0.8479 H   0  0  0  0  0  0  0  0  0  0  0  0
    2.2841   -6.3329   -0.2601 H   0  0  0  0  0  0  0  0  0  0  0  0
   -1.9101   -7.4100    1.1910 H   0  0  0  0  0  0  0  0  0  0  0  0
   -2.2137   -5.8695    2.0039 H   0  0  0  0  0  0  0  0  0  0  0  0
   -2.1870   -7.2804   -1.5267 H   0  0  0  0  0  0  0  0  0  0  0  0
   -3.9249   -6.7916   -3.1938 H   0  0  0  0  0  0  0  0  0  0  0  0
   -5.8236   -4.2417   -3.4629 H   0  0  0  0  0  0  0  0  0  0  0  0
   -6.2062   -5.9700   -3.6470 H   0  0  0  0  0  0  0  0  0  0  0  0
   -7.0752   -5.0080   -2.4524 H   0  0  0  0  0  0  0  0  0  0  0  0
   -5.9052   -4.2001   -0.3766 H   0  0  0  0  0  0  0  0  0  0  0  0
   -4.1708   -4.6815    1.2922 H   0  0  0  0  0  0  0  0  0  0  0  0
  1  2  1  0
  2  3  1  0
  3  4  1  0
  3  5  2  0
  5  6  1  0
  6  7  2  0
  6  8  1  0
  8  9  2  0
  9 10  1  0
 10 11  2  0
 10 12  1  0
  8 13  1  0
 13 14  1  0
 14 15  2  0
 14 16  1  0
 16 17  2  0
 17 18  1  0
 18 19  1  0
 19 20  1  0
 20 21  2  0
 21 22  1  0
 22 23  2  0
 23 24  1  0
 23 25  1  0
 25 26  2  0
  7  2  1  0
 11  7  1  0
 18 15  1  0
 26 20  1  0
  1 27  1  0
  1 28  1  0
  1 29  1  0
  4 30  1  0
  4 31  1  0
  4 32  1  0
 12 33  1  0
 12 34  1  0
 13 35  1  0
 15 36  1  0
 16 37  1  0
 19 38  1  0
 19 39  1  0
 21 40  1  0
 22 41  1  0
 24 42  1  0
 24 43  1  0
 24 44  1  0
 25 45  1  0
 26 46  1  0
M  END
>  <mol_id>  (16) 
OSSL_404781

>  <drugclip_rank>  (16) 
16

>  <conformer>  (16) 
12

>  <align_rmsd>  (16) 
0.628

$$$$
OSSL_673711
     RDKit          3D

 49 52  0  0  0  0  0  0  0  0999 V2000
    4.9654   -5.2029    0.7673 C   0  0  0  0  0  0  0  0  0  0  0  0
    6.1201   -5.9694    1.4049 C   0  0  0  0  0  0  0  0  0  0  0  0
    7.1705   -6.3821    0.3785 C   0  0  0  0  0  0  0  0  0  0  0  0
    7.2853   -5.3837   -0.7700 C   0  0  0  0  0  0  0  0  0  0  0  0
    6.8384   -3.9849   -0.3578 C   0  0  0  0  0  0  0  0  0  0  0  0
    5.4321   -3.9969    0.0779 N   0  0  0  0  0  0  0  0  0  0  0  0
    4.7001   -2.8266   -0.0008 C   0  0  0  0  0  0  0  0  0  0  0  0
    5.2612   -1.6895   -0.2640 N   0  0  0  0  0  0  0  0  0  0  0  0
    3.3457   -2.8976    0.1941 N   0  0  0  0  0  0  0  0  0  0  0  0
    2.4841   -1.8321    0.1228 C   0  0  0  0  0  0  0  0  0  0  0  0
    1.2803   -2.0001    0.2817 O   0  0  0  0  0  0  0  0  0  0  0  0
    3.1016   -0.5233   -0.1511 C   0  0  0  0  0  0  0  0  0  0  0  0
    4.4789   -0.5339   -0.3332 C   0  0  0  0  0  0  0  0  0  0  0  0
    2.4107    0.6945   -0.2551 C   0  0  0  0  0  0  0  0  0  0  0  0
    3.1544    1.8521   -0.5143 C   0  0  0  0  0  0  0  0  0  0  0  0
    4.5244    1.7457   -0.6775 C   0  0  0  0  0  0  0  0  0  0  0  0
    5.1969    0.5824   -0.5961 N   0  0  0  0  0  0  0  0  0  0  0  0
    0.9580    0.8144   -0.0599 C   0  0  0  0  0  0  0  0  0  0  0  0
    0.1475    1.4412   -0.9281 C   0  0  0  0  0  0  0  0  0  0  0  0
   -1.3079    1.5299   -0.7508 C   0  0  0  0  0  0  0  0  0  0  0  0
   -2.0671    0.4488   -0.2857 C   0  0  0  0  0  0  0  0  0  0  0  0
   -3.4580    0.5518   -0.1552 C   0  0  0  0  0  0  0  0  0  0  0  0
   -4.1086    1.7359   -0.4990 C   0  0  0  0  0  0  0  0  0  0  0  0
   -3.3567    2.8101   -0.9790 C   0  0  0  0  0  0  0  0  0  0  0  0
   -1.9684    2.7084   -1.1107 C   0  0  0  0  0  0  0  0  0  0  0  0
   -5.4538    1.9687   -0.4203 O   0  0  0  0  0  0  0  0  0  0  0  0
   -6.2608    0.9052    0.0694 C   0  0  0  0  0  0  0  0  0  0  0  0
    4.2626   -4.9415    1.5669 H   0  0  0  0  0  0  0  0  0  0  0  0
    4.4326   -5.8417    0.0534 H   0  0  0  0  0  0  0  0  0  0  0  0
    5.7451   -6.8564    1.9279 H   0  0  0  0  0  0  0  0  0  0  0  0
    6.5939   -5.3355    2.1658 H   0  0  0  0  0  0  0  0  0  0  0  0
    8.1384   -6.4873    0.8832 H   0  0  0  0  0  0  0  0  0  0  0  0
    6.9285   -7.3700   -0.0313 H   0  0  0  0  0  0  0  0  0  0  0  0
    6.6603   -5.7276   -1.6046 H   0  0  0  0  0  0  0  0  0  0  0  0
    8.3164   -5.3614   -1.1401 H   0  0  0  0  0  0  0  0  0  0  0  0
    6.9652   -3.3242   -1.2238 H   0  0  0  0  0  0  0  0  0  0  0  0
    7.4715   -3.5988    0.4501 H   0  0  0  0  0  0  0  0  0  0  0  0
    2.9054   -3.7907    0.3343 H   0  0  0  0  0  0  0  0  0  0  0  0
    2.6823    2.8276   -0.5804 H   0  0  0  0  0  0  0  0  0  0  0  0
    5.1357    2.6205   -0.8808 H   0  0  0  0  0  0  0  0  0  0  0  0
    0.5604    0.3358    0.8329 H   0  0  0  0  0  0  0  0  0  0  0  0
    0.5413    1.9160   -1.8234 H   0  0  0  0  0  0  0  0  0  0  0  0
   -1.5852   -0.4936   -0.0299 H   0  0  0  0  0  0  0  0  0  0  0  0
   -3.9979   -0.3144    0.2117 H   0  0  0  0  0  0  0  0  0  0  0  0
   -3.8565    3.7353   -1.2549 H   0  0  0  0  0  0  0  0  0  0  0  0
   -1.4117    3.5623   -1.4889 H   0  0  0  0  0  0  0  0  0  0  0  0
   -5.9895    0.6444    1.0978 H   0  0  0  0  0  0  0  0  0  0  0  0
   -7.2994    1.2499    0.0767 H   0  0  0  0  0  0  0  0  0  0  0  0
   -6.2048    0.0319   -0.5888 H   0  0  0  0  0  0  0  0  0  0  0  0
  1  2  1  0
  2  3  1  0
  3  4  1  0
  4  5  1  0
  5  6  1  0
  6  7  1  0
  7  8  2  0
  7  9  1  0
  9 10  1  0
 10 11  2  0
 10 12  1  0
 12 13  2  0
 12 14  1  0
 14 15  2  0
 15 16  1  0
 16 17  2  0
 14 18  1  0
 18 19  2  0
 19 20  1  0
 20 21  2  0
 21 22  1  0
 22 23  2  0
 23 24  1  0
 24 25  2  0
 23 26  1  0
 26 27  1  0
  6  1  1  0
 13  8  1  0
 17 13  1  0
 25 20  1  0
  1 28  1  0
  1 29  1  0
  2 30  1  0
  2 31  1  0
  3 32  1  0
  3 33  1  0
  4 34  1  0
  4 35  1  0
  5 36  1  0
  5 37  1  0
  9 38  1  0
 15 39  1  0
 16 40  1  0
 18 41  1  0
 19 42  1  0
 21 43  1  0
 22 44  1  0
 24 45  1  0
 25 46  1  0
 27 47  1  0
 27 48  1  0
 27 49  1  0
M  END
>  <mol_id>  (17) 
OSSL_673711

>  <drugclip_rank>  (17) 
17

>  <conformer>  (17) 
5

>  <align_rmsd>  (17) 
0.678

$$$$
OSSL_656571
     RDKit          3D

 48 49  0  0  0  0  0  0  0  0999 V2000
    6.0179   -4.0231   -1.5663 C   0  0  0  0  0  0  0  0  0  0  0  0
    5.9701   -2.5685   -1.1415 C   0  0  0  0  0  0  0  0  0  0  0  0
    4.6000   -2.2247   -0.8865 O   0  0  0  0  0  0  0  0  0  0  0  0
    4.4117   -0.9391   -0.4977 C   0  0  0  0  0  0  0  0  0  0  0  0
    5.2875   -0.0995   -0.3627 O   0  0  0  0  0  0  0  0  0  0  0  0
    2.9837   -0.6465   -0.2929 C   0  0  0  0  0  0  0  0  0  0  0  0
    2.5876    0.6750   -0.3130 C   0  0  0  0  0  0  0  0  0  0  0  0
    1.3118    1.0799   -0.1474 N   0  0  0  0  0  0  0  0  0  0  0  0
    0.4086    0.1139    0.0612 C   0  0  0  0  0  0  0  0  0  0  0  0
    0.6932   -1.1960    0.1022 N   0  0  0  0  0  0  0  0  0  0  0  0
    1.9733   -1.5721   -0.0782 C   0  0  0  0  0  0  0  0  0  0  0  0
    2.1996   -2.9494    0.0538 N   0  0  0  0  0  0  0  0  0  0  0  0
   -1.2741    0.6266    0.2735 S   0  0  0  0  0  0  0  0  0  0  0  0
   -1.9131   -0.8338    1.1529 C   0  0  0  0  0  0  0  0  0  0  0  0
   -3.3559   -0.6170    1.5833 C   0  0  0  0  0  0  0  0  0  0  0  0
   -3.6936   -0.8047    2.7493 O   0  0  0  0  0  0  0  0  0  0  0  0
   -4.1962   -0.2752    0.5350 N   0  0  0  0  0  0  0  0  0  0  0  0
   -5.5866   -0.0561    0.5756 C   0  0  0  0  0  0  0  0  0  0  0  0
   -6.2073    0.3273   -0.6201 C   0  0  0  0  0  0  0  0  0  0  0  0
   -7.5864    0.5603   -0.6669 C   0  0  0  0  0  0  0  0  0  0  0  0
   -6.3682   -0.2025    1.7231 C   0  0  0  0  0  0  0  0  0  0  0  0
   -7.7495    0.0321    1.6812 C   0  0  0  0  0  0  0  0  0  0  0  0
   -8.3670    0.4150    0.4853 C   0  0  0  0  0  0  0  0  0  0  0  0
   -9.8291    0.6725    0.3837 C   0  0  0  0  0  0  0  0  0  0  0  0
  -10.3919    0.9539   -0.6626 O   0  0  0  0  0  0  0  0  0  0  0  0
  -10.4221    0.5535    1.5973 O   0  0  0  0  0  0  0  0  0  0  0  0
  -11.8350    0.7891    1.5862 C   0  0  0  0  0  0  0  0  0  0  0  0
  -12.3431    0.6848    3.0108 C   0  0  0  0  0  0  0  0  0  0  0  0
    7.0455   -4.3370   -1.7702 H   0  0  0  0  0  0  0  0  0  0  0  0
    5.5990   -4.6670   -0.7859 H   0  0  0  0  0  0  0  0  0  0  0  0
    5.4146   -4.1809   -2.4667 H   0  0  0  0  0  0  0  0  0  0  0  0
    6.5615   -2.4276   -0.2301 H   0  0  0  0  0  0  0  0  0  0  0  0
    6.3668   -1.9349   -1.9424 H   0  0  0  0  0  0  0  0  0  0  0  0
    3.3019    1.4807   -0.4712 H   0  0  0  0  0  0  0  0  0  0  0  0
    2.7375   -3.1333    0.8970 H   0  0  0  0  0  0  0  0  0  0  0  0
    2.7716   -3.2786   -0.7244 H   0  0  0  0  0  0  0  0  0  0  0  0
   -1.8790   -1.7204    0.5108 H   0  0  0  0  0  0  0  0  0  0  0  0
   -1.3109   -1.0157    2.0491 H   0  0  0  0  0  0  0  0  0  0  0  0
   -3.7382   -0.0976   -0.3525 H   0  0  0  0  0  0  0  0  0  0  0  0
   -5.6308    0.4502   -1.5339 H   0  0  0  0  0  0  0  0  0  0  0  0
   -8.0473    0.8558   -1.6080 H   0  0  0  0  0  0  0  0  0  0  0  0
   -5.9360   -0.4984    2.6747 H   0  0  0  0  0  0  0  0  0  0  0  0
   -8.3255   -0.0917    2.5953 H   0  0  0  0  0  0  0  0  0  0  0  0
  -12.0438    1.7897    1.1920 H   0  0  0  0  0  0  0  0  0  0  0  0
  -12.3275    0.0362    0.9610 H   0  0  0  0  0  0  0  0  0  0  0  0
  -12.1169   -0.3009    3.4306 H   0  0  0  0  0  0  0  0  0  0  0  0
  -13.4234    0.8474    3.0521 H   0  0  0  0  0  0  0  0  0  0  0  0
  -11.8495    1.4236    3.6510 H   0  0  0  0  0  0  0  0  0  0  0  0
  1  2  1  0
  2  3  1  0
  3  4  1  0
  4  5  2  0
  4  6  1  0
  6  7  2  0
  7  8  1  0
  8  9  2  0
  9 10  1  0
 10 11  2  0
 11 12  1  0
  9 13  1  0
 13 14  1  0
 14 15  1  0
 15 16  2  0
 15 17  1  0
 17 18  1  0
 18 19  2  0
 19 20  1  0
 18 21  1  0
 21 22  2  0
 22 23  1  0
 23 24  1  0
 24 25  2  0
 24 26  1  0
 26 27  1  0
 27 28  1  0
 11  6  1  0
 23 20  2  0
  1 29  1  0
  1 30  1  0
  1 31  1  0
  2 32  1  0
  2 33  1  0
  7 34  1  0
 12 35  1  0
 12 36  1  0
 14 37  1  0
 14 38  1  0
 17 39  1  0
 19 40  1  0
 20 41  1  0
 21 42  1  0
 22 43  1  0
 27 44  1  0
 27 45  1  0
 28 46  1  0
 28 47  1  0
 28 48  1  0
M  END
>  <mol_id>  (18) 
OSSL_656571

>  <drugclip_rank>  (18) 
18

>  <conformer>  (18) 
39

>  <align_rmsd>  (18) 
0.689

$$$$
STK397962
     RDKit          3D

 55 58  0  0  0  0  0  0  0  0999 V2000
   -4.9781   -0.5237    2.3545 C   0  0  0  0  0  0  0  0  0  0  0  0
   -5.7121   -1.5396    1.4668 C   0  0  0  0  0  0  0  0  0  0  0  0
   -6.3795   -0.8793    0.3740 O   0  0  0  0  0  0  0  0  0  0  0  0
   -5.4335   -0.1508   -0.4256 C   0  0  0  0  0  0  0  0  0  0  0  0
   -4.6973    0.9071    0.4126 C   0  0  0  0  0  0  0  0  0  0  0  0
   -4.0063    0.2575    1.5486 N   0  0  0  0  0  0  0  0  0  0  0  0
   -2.7383   -0.2649    1.3779 C   0  0  0  0  0  0  0  0  0  0  0  0
   -2.4290   -1.4718    1.7221 N   0  0  0  0  0  0  0  0  0  0  0  0
   -1.7991    0.5690    0.8385 N   0  0  0  0  0  0  0  0  0  0  0  0
   -0.4789    0.2451    0.6514 C   0  0  0  0  0  0  0  0  0  0  0  0
    0.3085    1.0861    0.2376 O   0  0  0  0  0  0  0  0  0  0  0  0
   -0.1051   -1.1400    0.9879 C   0  0  0  0  0  0  0  0  0  0  0  0
   -1.1227   -1.9261    1.5179 C   0  0  0  0  0  0  0  0  0  0  0  0
    1.1746   -1.6971    0.8249 C   0  0  0  0  0  0  0  0  0  0  0  0
    1.3545   -3.0336    1.2138 C   0  0  0  0  0  0  0  0  0  0  0  0
    0.2827   -3.7396    1.7304 C   0  0  0  0  0  0  0  0  0  0  0  0
   -0.9466   -3.2153    1.8872 N   0  0  0  0  0  0  0  0  0  0  0  0
    2.3273   -0.9770    0.2723 C   0  0  0  0  0  0  0  0  0  0  0  0
    3.3022   -0.4301    1.1174 C   0  0  0  0  0  0  0  0  0  0  0  0
    4.4165    0.2258    0.5865 C   0  0  0  0  0  0  0  0  0  0  0  0
    4.5812    0.3483   -0.7942 C   0  0  0  0  0  0  0  0  0  0  0  0
    3.6184   -0.1938   -1.6440 C   0  0  0  0  0  0  0  0  0  0  0  0
    2.5023   -0.8535   -1.1139 C   0  0  0  0  0  0  0  0  0  0  0  0
    5.7140    1.0108   -1.1769 O   0  0  0  0  0  0  0  0  0  0  0  0
    5.9207    1.1931   -2.5761 C   0  0  0  0  0  0  0  0  0  0  0  0
    7.2228    1.9683   -2.7901 C   0  0  0  0  0  0  0  0  0  0  0  0
    8.4733    1.3089   -2.1750 C   0  0  0  0  0  0  0  0  0  0  0  0
    9.6902    2.2144   -2.3826 C   0  0  0  0  0  0  0  0  0  0  0  0
    8.7521   -0.0744   -2.7641 C   0  0  0  0  0  0  0  0  0  0  0  0
   -4.4891   -1.0210    3.1995 H   0  0  0  0  0  0  0  0  0  0  0  0
   -5.7059    0.1799    2.7774 H   0  0  0  0  0  0  0  0  0  0  0  0
   -5.0304   -2.2951    1.0604 H   0  0  0  0  0  0  0  0  0  0  0  0
   -6.4770   -2.0594    2.0521 H   0  0  0  0  0  0  0  0  0  0  0  0
   -4.7313   -0.8584   -0.8820 H   0  0  0  0  0  0  0  0  0  0  0  0
   -5.9904    0.3370   -1.2318 H   0  0  0  0  0  0  0  0  0  0  0  0
   -4.0055    1.4724   -0.2196 H   0  0  0  0  0  0  0  0  0  0  0  0
   -5.4230    1.6222    0.8184 H   0  0  0  0  0  0  0  0  0  0  0  0
   -2.0352    1.5356    0.6824 H   0  0  0  0  0  0  0  0  0  0  0  0
    2.3208   -3.5202    1.1114 H   0  0  0  0  0  0  0  0  0  0  0  0
    0.3886   -4.7758    2.0395 H   0  0  0  0  0  0  0  0  0  0  0  0
    3.1987   -0.5039    2.1975 H   0  0  0  0  0  0  0  0  0  0  0  0
    5.1602    0.6500    1.2564 H   0  0  0  0  0  0  0  0  0  0  0  0
    3.6994   -0.1197   -2.7228 H   0  0  0  0  0  0  0  0  0  0  0  0
    1.7621   -1.2660   -1.7962 H   0  0  0  0  0  0  0  0  0  0  0  0
    5.9731    0.2253   -3.0872 H   0  0  0  0  0  0  0  0  0  0  0  0
    5.0965    1.7794   -3.0008 H   0  0  0  0  0  0  0  0  0  0  0  0
    7.1051    2.9617   -2.3377 H   0  0  0  0  0  0  0  0  0  0  0  0
    7.3712    2.1218   -3.8660 H   0  0  0  0  0  0  0  0  0  0  0  0
    8.3244    1.1968   -1.0938 H   0  0  0  0  0  0  0  0  0  0  0  0
   10.5818    1.7812   -1.9171 H   0  0  0  0  0  0  0  0  0  0  0  0
    9.5246    3.1985   -1.9315 H   0  0  0  0  0  0  0  0  0  0  0  0
    9.9007    2.3601   -3.4476 H   0  0  0  0  0  0  0  0  0  0  0  0
    9.6846   -0.4864   -2.3633 H   0  0  0  0  0  0  0  0  0  0  0  0
    8.8436   -0.0305   -3.8546 H   0  0  0  0  0  0  0  0  0  0  0  0
    7.9543   -0.7808   -2.5158 H   0  0  0  0  0  0  0  0  0  0  0  0
  1  2  1  0
  2  3  1  0
  3  4  1  0
  4  5  1  0
  5  6  1  0
  6  7  1  0
  7  8  2  0
  7  9  1  0
  9 10  1  0
 10 11  2  0
 10 12  1  0
 12 13  2  0
 12 14  1  0
 14 15  2  0
 15 16  1  0
 16 17  2  0
 14 18  1  0
 18 19  2  0
 19 20  1  0
 20 21  2  0
 21 22  1  0
 22 23  2  0
 21 24  1  0
 24 25  1  0
 25 26  1  0
 26 27  1  0
 27 28  1  0
 27 29  1  0
  6  1  1  0
 13  8  1  0
 17 13  1  0
 23 18  1  0
  1 30  1  0
  1 31  1  0
  2 32  1  0
  2 33  1  0
  4 34  1  0
  4 35  1  0
  5 36  1  0
  5 37  1  0
  9 38  1  0
 15 39  1  0
 16 40  1  0
 19 41  1  0
 20 42  1  0
 22 43  1  0
 23 44  1  0
 25 45  1  0
 25 46  1  0
 26 47  1  0
 26 48  1  0
 27 49  1  0
 28 50  1  0
 28 51  1  0
 28 52  1  0
 29 53  1  0
 29 54  1  0
 29 55  1  0
M  END
>  <mol_id>  (19) 
STK397962

>  <drugclip_rank>  (19) 
19

>  <conformer>  (19) 
1

>  <align_rmsd>  (19) 
0.618

$$$$
OSSL_644910
     RDKit          3D

 50 53  0  0  0  0  0  0  0  0999 V2000
    6.3112   -3.3644    1.2585 C   0  0  0  0  0  0  0  0  0  0  0  0
    6.0354   -2.0778    0.5056 C   0  0  0  0  0  0  0  0  0  0  0  0
    4.6147   -1.8797    0.4681 O   0  0  0  0  0  0  0  0  0  0  0  0
    4.2277   -0.7584   -0.1929 C   0  0  0  0  0  0  0  0  0  0  0  0
    4.9657    0.0449   -0.7359 O   0  0  0  0  0  0  0  0  0  0  0  0
    2.7642   -0.6218   -0.1205 C   0  0  0  0  0  0  0  0  0  0  0  0
    2.1768    0.6077    0.1473 C   0  0  0  0  0  0  0  0  0  0  0  0
    0.8339    0.7583    0.2154 N   0  0  0  0  0  0  0  0  0  0  0  0
    2.9753    1.8568    0.3847 C   0  0  0  0  0  0  0  0  0  0  0  0
    1.9007   -1.6954   -0.3223 C   0  0  0  0  0  0  0  0  0  0  0  0
    2.3457   -2.9823   -0.6660 N   0  0  0  0  0  0  0  0  0  0  0  0
    0.5661   -1.5571   -0.2683 N   0  0  0  0  0  0  0  0  0  0  0  0
    0.0846   -0.3353    0.0033 C   0  0  0  0  0  0  0  0  0  0  0  0
   -1.3763   -0.1991    0.0618 C   0  0  0  0  0  0  0  0  0  0  0  0
   -2.3486   -1.1342    0.4233 C   0  0  0  0  0  0  0  0  0  0  0  0
   -2.0469   -2.5108    0.9358 C   0  0  0  0  0  0  0  0  0  0  0  0
   -2.0862    1.3008   -0.3785 S   0  0  0  0  0  0  0  0  0  0  0  0
   -3.6590    0.7135   -0.1566 C   0  0  0  0  0  0  0  0  0  0  0  0
   -3.6940   -0.6100    0.2419 C   0  0  0  0  0  0  0  0  0  0  0  0
   -4.7091    1.5172   -0.3786 N   0  0  0  0  0  0  0  0  0  0  0  0
   -5.8888    0.9200   -0.1752 C   0  0  0  0  0  0  0  0  0  0  0  0
   -6.0600   -0.3662    0.1884 N   0  0  0  0  0  0  0  0  0  0  0  0
   -4.9855   -1.1469    0.3949 C   0  0  0  0  0  0  0  0  0  0  0  0
   -5.2559   -2.4720    0.7198 N   0  0  0  0  0  0  0  0  0  0  0  0
   -7.1079    1.7347   -0.3816 C   0  0  0  0  0  0  0  0  0  0  0  0
   -7.0351    3.0741   -0.8140 C   0  0  0  0  0  0  0  0  0  0  0  0
   -8.1857    3.8455   -1.0101 C   0  0  0  0  0  0  0  0  0  0  0  0
   -9.4418    3.2948   -0.7771 C   0  0  0  0  0  0  0  0  0  0  0  0
   -9.5478    1.9755   -0.3484 C   0  0  0  0  0  0  0  0  0  0  0  0
   -8.3947    1.2074   -0.1538 C   0  0  0  0  0  0  0  0  0  0  0  0
    5.9081   -3.3100    2.2752 H   0  0  0  0  0  0  0  0  0  0  0  0
    7.3854   -3.5614    1.3143 H   0  0  0  0  0  0  0  0  0  0  0  0
    5.8209   -4.2111    0.7668 H   0  0  0  0  0  0  0  0  0  0  0  0
    6.4245   -2.1554   -0.5158 H   0  0  0  0  0  0  0  0  0  0  0  0
    6.5113   -1.2361    1.0208 H   0  0  0  0  0  0  0  0  0  0  0  0
    2.3253    2.6718    0.7216 H   0  0  0  0  0  0  0  0  0  0  0  0
    3.7275    1.6954    1.1631 H   0  0  0  0  0  0  0  0  0  0  0  0
    3.4617    2.1811   -0.5400 H   0  0  0  0  0  0  0  0  0  0  0  0
    3.0596   -3.2827   -0.0020 H   0  0  0  0  0  0  0  0  0  0  0  0
    2.7791   -2.9680   -1.5858 H   0  0  0  0  0  0  0  0  0  0  0  0
   -1.0814   -2.5520    1.4487 H   0  0  0  0  0  0  0  0  0  0  0  0
   -2.7890   -2.8300    1.6733 H   0  0  0  0  0  0  0  0  0  0  0  0
   -2.0383   -3.2290    0.1101 H   0  0  0  0  0  0  0  0  0  0  0  0
   -6.2352   -2.6700    0.5413 H   0  0  0  0  0  0  0  0  0  0  0  0
   -4.6094   -3.1348    0.3136 H   0  0  0  0  0  0  0  0  0  0  0  0
   -6.0655    3.5330   -1.0042 H   0  0  0  0  0  0  0  0  0  0  0  0
   -8.0952    4.8759   -1.3441 H   0  0  0  0  0  0  0  0  0  0  0  0
  -10.3362    3.8931   -0.9282 H   0  0  0  0  0  0  0  0  0  0  0  0
  -10.5259    1.5396   -0.1629 H   0  0  0  0  0  0  0  0  0  0  0  0
   -8.5085    0.1786    0.1847 H   0  0  0  0  0  0  0  0  0  0  0  0
  1  2  1  0
  2  3  1  0
  3  4  1  0
  4  5  2  0
  4  6  1  0
  6  7  2  0
  7  8  1  0
  7  9  1  0
  6 10  1  0
 10 11  1  0
 10 12  2  0
 12 13  1  0
 13 14  1  0
 14 15  2  0
 15 16  1  0
 14 17  1  0
 17 18  1  0
 18 19  2  0
 18 20  1  0
 20 21  2  0
 21 22  1  0
 22 23  2  0
 23 24  1  0
 21 25  1  0
 25 26  2  0
 26 27  1  0
 27 28  2  0
 28 29  1  0
 29 30  2  0
 13  8  2  0
 19 15  1  0
 23 19  1  0
 30 25  1  0
  1 31  1  0
  1 32  1  0
  1 33  1  0
  2 34  1  0
  2 35  1  0
  9 36  1  0
  9 37  1  0
  9 38  1  0
 11 39  1  0
 11 40  1  0
 16 41  1  0
 16 42  1  0
 16 43  1  0
 24 44  1  0
 24 45  1  0
 26 46  1  0
 27 47  1  0
 28 48  1  0
 29 49  1  0
 30 50  1  0
M  END
>  <mol_id>  (20) 
OSSL_644910

>  <drugclip_rank>  (20) 
20

>  <conformer>  (20) 
11

>  <align_rmsd>  (20) 
0.826

$$$$
8014-8754
     RDKit          3D

 50 53  0  0  0  0  0  0  0  0999 V2000
    6.3112   -3.3644    1.2585 C   0  0  0  0  0  0  0  0  0  0  0  0
    6.0354   -2.0778    0.5056 C   0  0  0  0  0  0  0  0  0  0  0  0
    4.6147   -1.8797    0.4681 O   0  0  0  0  0  0  0  0  0  0  0  0
    4.2277   -0.7584   -0.1929 C   0  0  0  0  0  0  0  0  0  0  0  0
    4.9657    0.0449   -0.7359 O   0  0  0  0  0  0  0  0  0  0  0  0
    2.7642   -0.6218   -0.1205 C   0  0  0  0  0  0  0  0  0  0  0  0
    2.1768    0.6077    0.1473 C   0  0  0  0  0  0  0  0  0  0  0  0
    0.8339    0.7583    0.2154 N   0  0  0  0  0  0  0  0  0  0  0  0
    2.9753    1.8568    0.3847 C   0  0  0  0  0  0  0  0  0  0  0  0
    1.9007   -1.6954   -0.3223 C   0  0  0  0  0  0  0  0  0  0  0  0
    2.3457   -2.9823   -0.6660 N   0  0  0  0  0  0  0  0  0  0  0  0
    0.5661   -1.5571   -0.2683 N   0  0  0  0  0  0  0  0  0  0  0  0
    0.0846   -0.3353    0.0033 C   0  0  0  0  0  0  0  0  0  0  0  0
   -1.3763   -0.1991    0.0618 C   0  0  0  0  0  0  0  0  0  0  0  0
   -2.3486   -1.1342    0.4233 C   0  0  0  0  0  0  0  0  0  0  0  0
   -2.0469   -2.5108    0.9358 C   0  0  0  0  0  0  0  0  0  0  0  0
   -2.0862    1.3008   -0.3785 S   0  0  0  0  0  0  0  0  0  0  0  0
   -3.6590    0.7135   -0.1566 C   0  0  0  0  0  0  0  0  0  0  0  0
   -3.6940   -0.6100    0.2419 C   0  0  0  0  0  0  0  0  0  0  0  0
   -4.7091    1.5172   -0.3786 N   0  0  0  0  0  0  0  0  0  0  0  0
   -5.8888    0.9200   -0.1752 C   0  0  0  0  0  0  0  0  0  0  0  0
   -6.0600   -0.3662    0.1884 N   0  0  0  0  0  0  0  0  0  0  0  0
   -4.9855   -1.1469    0.3949 C   0  0  0  0  0  0  0  0  0  0  0  0
   -5.2559   -2.4720    0.7198 N   0  0  0  0  0  0  0  0  0  0  0  0
   -7.1079    1.7347   -0.3816 C   0  0  0  0  0  0  0  0  0  0  0  0
   -7.0351    3.0741   -0.8140 C   0  0  0  0  0  0  0  0  0  0  0  0
   -8.1857    3.8455   -1.0101 C   0  0  0  0  0  0  0  0  0  0  0  0
   -9.4418    3.2948   -0.7771 C   0  0  0  0  0  0  0  0  0  0  0  0
   -9.5478    1.9755   -0.3484 C   0  0  0  0  0  0  0  0  0  0  0  0
   -8.3947    1.2074   -0.1538 C   0  0  0  0  0  0  0  0  0  0  0  0
    5.9081   -3.3100    2.2752 H   0  0  0  0  0  0  0  0  0  0  0  0
    7.3854   -3.5614    1.3143 H   0  0  0  0  0  0  0  0  0  0  0  0
    5.8209   -4.2111    0.7668 H   0  0  0  0  0  0  0  0  0  0  0  0
    6.4245   -2.1554   -0.5158 H   0  0  0  0  0  0  0  0  0  0  0  0
    6.5113   -1.2361    1.0208 H   0  0  0  0  0  0  0  0  0  0  0  0
    2.3253    2.6718    0.7216 H   0  0  0  0  0  0  0  0  0  0  0  0
    3.7275    1.6954    1.1631 H   0  0  0  0  0  0  0  0  0  0  0  0
    3.4617    2.1811   -0.5400 H   0  0  0  0  0  0  0  0  0  0  0  0
    3.0596   -3.2827   -0.0020 H   0  0  0  0  0  0  0  0  0  0  0  0
    2.7791   -2.9680   -1.5858 H   0  0  0  0  0  0  0  0  0  0  0  0
   -1.0814   -2.5520    1.4487 H   0  0  0  0  0  0  0  0  0  0  0  0
   -2.7890   -2.8300    1.6733 H   0  0  0  0  0  0  0  0  0  0  0  0
   -2.0383   -3.2290    0.1101 H   0  0  0  0  0  0  0  0  0  0  0  0
   -6.2352   -2.6700    0.5413 H   0  0  0  0  0  0  0  0  0  0  0  0
   -4.6094   -3.1348    0.3136 H   0  0  0  0  0  0  0  0  0  0  0  0
   -6.0655    3.5330   -1.0042 H   0  0  0  0  0  0  0  0  0  0  0  0
   -8.0952    4.8759   -1.3441 H   0  0  0  0  0  0  0  0  0  0  0  0
  -10.3362    3.8931   -0.9282 H   0  0  0  0  0  0  0  0  0  0  0  0
  -10.5259    1.5396   -0.1629 H   0  0  0  0  0  0  0  0  0  0  0  0
   -8.5085    0.1786    0.1847 H   0  0  0  0  0  0  0  0  0  0  0  0
  1  2  1  0
  2  3  1  0
  3  4  1  0
  4  5  2  0
  4  6  1  0
  6  7  2  0
  7  8  1  0
  7  9  1  0
  6 10  1  0
 10 11  1  0
 10 12  2  0
 12 13  1  0
 13 14  1  0
 14 15  2  0
 15 16  1  0
 14 17  1  0
 17 18  1  0
 18 19  2  0
 18 20  1  0
 20 21  2  0
 21 22  1  0
 22 23  2  0
 23 24  1  0
 21 25  1  0
 25 26  2  0
 26 27  1  0
 27 28  2  0
 28 29  1  0
 29 30  2  0
 13  8  2  0
 19 15  1  0
 23 19  1  0
 30 25  1  0
  1 31  1  0
  1 32  1  0
  1 33  1  0
  2 34  1  0
  2 35  1  0
  9 36  1  0
  9 37  1  0
  9 38  1  0
 11 39  1  0
 11 40  1  0
 16 41  1  0
 16 42  1  0
 16 43  1  0
 24 44  1  0
 24 45  1  0
 26 46  1  0
 27 47  1  0
 28 48  1  0
 29 49  1  0
 30 50  1  0
M  END
>  <mol_id>  (21) 
8014-8754

>  <drugclip_rank>  (21) 
21

>  <conformer>  (21) 
11

>  <align_rmsd>  (21) 
0.826

$$$$
MCULE-4640387766
     RDKit          3D

 55 58  0  0  0  0  0  0  0  0999 V2000
   -2.4242   -1.4830    1.7230 N   0  0  0  0  0  0  0  0  0  0  0  0
   -2.7312   -0.2744    1.3826 C   0  0  0  0  0  0  0  0  0  0  0  0
   -1.7910    0.5584    0.8429 N   0  0  0  0  0  0  0  0  0  0  0  0
   -0.4732    0.2302    0.6472 C   0  0  0  0  0  0  0  0  0  0  0  0
    0.3135    1.0674    0.2244 O   0  0  0  0  0  0  0  0  0  0  0  0
   -0.1012   -1.1550    0.9847 C   0  0  0  0  0  0  0  0  0  0  0  0
   -1.1193   -1.9400    1.5149 C   0  0  0  0  0  0  0  0  0  0  0  0
   -0.9448   -3.2303    1.8812 N   0  0  0  0  0  0  0  0  0  0  0  0
    0.2834   -3.7567    1.7208 C   0  0  0  0  0  0  0  0  0  0  0  0
    1.3558   -3.0516    1.2042 C   0  0  0  0  0  0  0  0  0  0  0  0
    1.1773   -1.7140    0.8194 C   0  0  0  0  0  0  0  0  0  0  0  0
    2.3301   -0.9922    0.2703 C   0  0  0  0  0  0  0  0  0  0  0  0
    2.5467   -0.9301   -1.1141 C   0  0  0  0  0  0  0  0  0  0  0  0
    3.6613   -0.2645   -1.6399 C   0  0  0  0  0  0  0  0  0  0  0  0
    4.5792    0.3471   -0.7873 C   0  0  0  0  0  0  0  0  0  0  0  0
    4.3748    0.2823    0.5921 C   0  0  0  0  0  0  0  0  0  0  0  0
    3.2621   -0.3798    1.1187 C   0  0  0  0  0  0  0  0  0  0  0  0
    5.7045    1.0249   -1.1672 O   0  0  0  0  0  0  0  0  0  0  0  0
    5.9054    1.2147   -2.5691 C   0  0  0  0  0  0  0  0  0  0  0  0
    7.1638    2.0644   -2.7468 C   0  0  0  0  0  0  0  0  0  0  0  0
    7.4434    2.4593   -4.2061 C   0  0  0  0  0  0  0  0  0  0  0  0
    7.7129    1.2461   -5.0973 C   0  0  0  0  0  0  0  0  0  0  0  0
    8.6337    3.4195   -4.2654 C   0  0  0  0  0  0  0  0  0  0  0  0
   -3.9976    0.2506    1.5578 N   0  0  0  0  0  0  0  0  0  0  0  0
   -4.9712   -0.5330    2.3593 C   0  0  0  0  0  0  0  0  0  0  0  0
   -5.7091   -1.5400    1.4649 C   0  0  0  0  0  0  0  0  0  0  0  0
   -6.3756   -0.8694    0.3778 O   0  0  0  0  0  0  0  0  0  0  0  0
   -5.4281   -0.1384   -0.4178 C   0  0  0  0  0  0  0  0  0  0  0  0
   -4.6878    0.9108    0.4274 C   0  0  0  0  0  0  0  0  0  0  0  0
   -2.0252    1.5254    0.6865 H   0  0  0  0  0  0  0  0  0  0  0  0
    0.3878   -4.7937    2.0276 H   0  0  0  0  0  0  0  0  0  0  0  0
    2.3216   -3.5390    1.1006 H   0  0  0  0  0  0  0  0  0  0  0  0
    1.8412   -1.3967   -1.7984 H   0  0  0  0  0  0  0  0  0  0  0  0
    3.7784   -0.2429   -2.7178 H   0  0  0  0  0  0  0  0  0  0  0  0
    5.0844    0.7587    1.2640 H   0  0  0  0  0  0  0  0  0  0  0  0
    3.1254   -0.4061    2.1974 H   0  0  0  0  0  0  0  0  0  0  0  0
    6.0403    0.2408   -3.0523 H   0  0  0  0  0  0  0  0  0  0  0  0
    5.0471    1.7396   -3.0057 H   0  0  0  0  0  0  0  0  0  0  0  0
    7.0592    2.9712   -2.1357 H   0  0  0  0  0  0  0  0  0  0  0  0
    8.0233    1.5268   -2.3247 H   0  0  0  0  0  0  0  0  0  0  0  0
    6.5664    2.9874   -4.6017 H   0  0  0  0  0  0  0  0  0  0  0  0
    7.9725    1.5611   -6.1139 H   0  0  0  0  0  0  0  0  0  0  0  0
    6.8303    0.6039   -5.1737 H   0  0  0  0  0  0  0  0  0  0  0  0
    8.5413    0.6441   -4.7085 H   0  0  0  0  0  0  0  0  0  0  0  0
    9.5457    2.9463   -3.8862 H   0  0  0  0  0  0  0  0  0  0  0  0
    8.8221    3.7429   -5.2945 H   0  0  0  0  0  0  0  0  0  0  0  0
    8.4416    4.3154   -3.6658 H   0  0  0  0  0  0  0  0  0  0  0  0
   -5.6963    0.1698    2.7879 H   0  0  0  0  0  0  0  0  0  0  0  0
   -4.4829   -1.0380    3.2003 H   0  0  0  0  0  0  0  0  0  0  0  0
   -6.4750   -2.0617    2.0472 H   0  0  0  0  0  0  0  0  0  0  0  0
   -5.0301   -2.2946    1.0522 H   0  0  0  0  0  0  0  0  0  0  0  0
   -5.9840    0.3570   -1.2198 H   0  0  0  0  0  0  0  0  0  0  0  0
   -4.7288   -0.8454   -0.8798 H   0  0  0  0  0  0  0  0  0  0  0  0
   -3.9953    1.4786   -0.2014 H   0  0  0  0  0  0  0  0  0  0  0  0
   -5.4108    1.6254    0.8393 H   0  0  0  0  0  0  0  0  0  0  0  0
  1  2  2  0
  2  3  1  0
  3  4  1  0
  4  5  2  0
  4  6  1  0
  6  7  2  0
  7  8  1  0
  8  9  2  0
  9 10  1  0
 10 11  2  0
 11 12  1  0
 12 13  2  0
 13 14  1  0
 14 15  2  0
 15 16  1  0
 16 17  2  0
 15 18  1  0
 18 19  1  0
 19 20  1  0
 20 21  1  0
 21 22  1  0
 21 23  1  0
  2 24  1  0
 24 25  1  0
 25 26  1  0
 26 27  1  0
 27 28  1  0
 28 29  1  0
  7  1  1  0
 17 12  1  0
 29 24  1  0
 11  6  1  0
  3 30  1  0
  9 31  1  0
 10 32  1  0
 13 33  1  0
 14 34  1  0
 16 35  1  0
 17 36  1  0
 19 37  1  0
 19 38  1  0
 20 39  1  0
 20 40  1  0
 21 41  1  0
 22 42  1  0
 22 43  1  0
 22 44  1  0
 23 45  1  0
 23 46  1  0
 23 47  1  0
 25 48  1  0
 25 49  1  0
 26 50  1  0
 26 51  1  0
 28 52  1  0
 28 53  1  0
 29 54  1  0
 29 55  1  0
M  END
>  <mol_id>  (22) 
MCULE-4640387766

>  <drugclip_rank>  (22) 
22

>  <conformer>  (22) 
1

>  <align_rmsd>  (22) 
0.627

$$$$
D133-0013
     RDKit          3D

 46 47  0  0  0  0  0  0  0  0999 V2000
    6.8515   -2.2533    1.1127 C   0  0  0  0  0  0  0  0  0  0  0  0
    6.1365   -2.5439   -0.1934 C   0  0  0  0  0  0  0  0  0  0  0  0
    4.7437   -2.2053   -0.0800 O   0  0  0  0  0  0  0  0  0  0  0  0
    4.4256   -0.9166   -0.3570 C   0  0  0  0  0  0  0  0  0  0  0  0
    5.2095   -0.0397   -0.6830 O   0  0  0  0  0  0  0  0  0  0  0  0
    2.9867   -0.6687   -0.1671 C   0  0  0  0  0  0  0  0  0  0  0  0
    2.5749    0.6388   -0.0057 C   0  0  0  0  0  0  0  0  0  0  0  0
    1.2914    1.0045    0.1894 N   0  0  0  0  0  0  0  0  0  0  0  0
    0.3921    0.0123    0.2174 C   0  0  0  0  0  0  0  0  0  0  0  0
    0.6889   -1.2844    0.0489 N   0  0  0  0  0  0  0  0  0  0  0  0
    1.9798   -1.6222   -0.1324 C   0  0  0  0  0  0  0  0  0  0  0  0
    2.1985   -2.9886   -0.3571 N   0  0  0  0  0  0  0  0  0  0  0  0
   -1.2989    0.4846    0.4588 S   0  0  0  0  0  0  0  0  0  0  0  0
   -2.0351   -1.1553    0.7604 C   0  0  0  0  0  0  0  0  0  0  0  0
   -3.5221   -1.0626    1.0795 C   0  0  0  0  0  0  0  0  0  0  0  0
   -4.0210   -1.8144    1.9145 O   0  0  0  0  0  0  0  0  0  0  0  0
   -4.2097   -0.1460    0.3023 N   0  0  0  0  0  0  0  0  0  0  0  0
   -5.5900    0.1308    0.3007 C   0  0  0  0  0  0  0  0  0  0  0  0
   -6.5302   -0.5718    1.0544 C   0  0  0  0  0  0  0  0  0  0  0  0
   -7.8910   -0.2366    0.9956 C   0  0  0  0  0  0  0  0  0  0  0  0
   -8.3259    0.8060    0.1804 C   0  0  0  0  0  0  0  0  0  0  0  0
   -7.3880    1.5084   -0.5762 C   0  0  0  0  0  0  0  0  0  0  0  0
   -6.0313    1.1744   -0.5193 C   0  0  0  0  0  0  0  0  0  0  0  0
   -9.6162    1.2331    0.0343 O   0  0  0  0  0  0  0  0  0  0  0  0
  -10.6156    0.5410    0.7813 C   0  0  0  0  0  0  0  0  0  0  0  0
  -11.9572    1.1805    0.4725 C   0  0  0  0  0  0  0  0  0  0  0  0
    6.3706   -2.7852    1.9403 H   0  0  0  0  0  0  0  0  0  0  0  0
    6.8112   -1.1863    1.3538 H   0  0  0  0  0  0  0  0  0  0  0  0
    7.8998   -2.5598    1.0577 H   0  0  0  0  0  0  0  0  0  0  0  0
    6.1870   -3.6158   -0.4111 H   0  0  0  0  0  0  0  0  0  0  0  0
    6.6065   -2.0210   -1.0343 H   0  0  0  0  0  0  0  0  0  0  0  0
    3.2831    1.4648   -0.0233 H   0  0  0  0  0  0  0  0  0  0  0  0
    2.5082   -3.1389   -1.3140 H   0  0  0  0  0  0  0  0  0  0  0  0
    2.9575   -3.3152    0.2414 H   0  0  0  0  0  0  0  0  0  0  0  0
   -1.9222   -1.7957   -0.1205 H   0  0  0  0  0  0  0  0  0  0  0  0
   -1.5349   -1.6198    1.6167 H   0  0  0  0  0  0  0  0  0  0  0  0
   -3.6305    0.4498   -0.2803 H   0  0  0  0  0  0  0  0  0  0  0  0
   -6.2413   -1.3936    1.7021 H   0  0  0  0  0  0  0  0  0  0  0  0
   -8.5787   -0.8157    1.6029 H   0  0  0  0  0  0  0  0  0  0  0  0
   -7.7156    2.3245   -1.2158 H   0  0  0  0  0  0  0  0  0  0  0  0
   -5.3317    1.7456   -1.1233 H   0  0  0  0  0  0  0  0  0  0  0  0
  -10.6465   -0.5146    0.4879 H   0  0  0  0  0  0  0  0  0  0  0  0
  -10.4175    0.6284    1.8560 H   0  0  0  0  0  0  0  0  0  0  0  0
  -12.1722    1.1278   -0.5999 H   0  0  0  0  0  0  0  0  0  0  0  0
  -12.7622    0.6808    1.0191 H   0  0  0  0  0  0  0  0  0  0  0  0
  -11.9501    2.2413    0.7442 H   0  0  0  0  0  0  0  0  0  0  0  0
  1  2  1  0
  2  3  1  0
  3  4  1  0
  4  5  2  0
  4  6  1  0
  6  7  2  0
  7  8  1  0
  8  9  2  0
  9 10  1  0
 10 11  2  0
 11 12  1  0
  9 13  1  0
 13 14  1  0
 14 15  1  0
 15 16  2  0
 15 17  1  0
 17 18  1  0
 18 19  2  0
 19 20  1  0
 20 21  2  0
 21 22  1  0
 22 23  2  0
 21 24  1  0
 24 25  1  0
 25 26  1  0
 11  6  1  0
 23 18  1  0
  1 27  1  0
  1 28  1  0
  1 29  1  0
  2 30  1  0
  2 31  1  0
  7 32  1  0
 12 33  1  0
 12 34  1  0
 14 35  1  0
 14 36  1  0
 17 37  1  0
 19 38  1  0
 20 39  1  0
 22 40  1  0
 23 41  1  0
 25 42  1  0
 25 43  1  0
 26 44  1  0
 26 45  1  0
 26 46  1  0
M  END
>  <mol_id>  (23) 
D133-0013

>  <drugclip_rank>  (23) 
23

>  <conformer>  (23) 
33

>  <align_rmsd>  (23) 
0.541

$$$$
STK772687
     RDKit          3D

 50 53  0  0  0  0  0  0  0  0999 V2000
    6.3112   -3.3644    1.2585 C   0  0  0  0  0  0  0  0  0  0  0  0
    6.0354   -2.0778    0.5056 C   0  0  0  0  0  0  0  0  0  0  0  0
    4.6147   -1.8797    0.4681 O   0  0  0  0  0  0  0  0  0  0  0  0
    4.2277   -0.7584   -0.1929 C   0  0  0  0  0  0  0  0  0  0  0  0
    4.9657    0.0449   -0.7359 O   0  0  0  0  0  0  0  0  0  0  0  0
    2.7642   -0.6218   -0.1205 C   0  0  0  0  0  0  0  0  0  0  0  0
    2.1768    0.6077    0.1473 C   0  0  0  0  0  0  0  0  0  0  0  0
    0.8339    0.7583    0.2154 N   0  0  0  0  0  0  0  0  0  0  0  0
    2.9753    1.8568    0.3847 C   0  0  0  0  0  0  0  0  0  0  0  0
    1.9007   -1.6954   -0.3223 C   0  0  0  0  0  0  0  0  0  0  0  0
    2.3457   -2.9823   -0.6660 N   0  0  0  0  0  0  0  0  0  0  0  0
    0.5661   -1.5571   -0.2683 N   0  0  0  0  0  0  0  0  0  0  0  0
    0.0846   -0.3353    0.0033 C   0  0  0  0  0  0  0  0  0  0  0  0
   -1.3763   -0.1991    0.0618 C   0  0  0  0  0  0  0  0  0  0  0  0
   -2.3486   -1.1342    0.4233 C   0  0  0  0  0  0  0  0  0  0  0  0
   -2.0469   -2.5108    0.9358 C   0  0  0  0  0  0  0  0  0  0  0  0
   -2.0862    1.3008   -0.3785 S   0  0  0  0  0  0  0  0  0  0  0  0
   -3.6590    0.7135   -0.1566 C   0  0  0  0  0  0  0  0  0  0  0  0
   -3.6940   -0.6100    0.2419 C   0  0  0  0  0  0  0  0  0  0  0  0
   -4.7091    1.5172   -0.3786 N   0  0  0  0  0  0  0  0  0  0  0  0
   -5.8888    0.9200   -0.1752 C   0  0  0  0  0  0  0  0  0  0  0  0
   -6.0600   -0.3662    0.1884 N   0  0  0  0  0  0  0  0  0  0  0  0
   -4.9855   -1.1469    0.3949 C   0  0  0  0  0  0  0  0  0  0  0  0
   -5.2559   -2.4720    0.7198 N   0  0  0  0  0  0  0  0  0  0  0  0
   -7.1079    1.7347   -0.3816 C   0  0  0  0  0  0  0  0  0  0  0  0
   -7.0351    3.0741   -0.8140 C   0  0  0  0  0  0  0  0  0  0  0  0
   -8.1857    3.8455   -1.0101 C   0  0  0  0  0  0  0  0  0  0  0  0
   -9.4418    3.2948   -0.7771 C   0  0  0  0  0  0  0  0  0  0  0  0
   -9.5478    1.9755   -0.3484 C   0  0  0  0  0  0  0  0  0  0  0  0
   -8.3947    1.2074   -0.1538 C   0  0  0  0  0  0  0  0  0  0  0  0
    5.9081   -3.3100    2.2752 H   0  0  0  0  0  0  0  0  0  0  0  0
    7.3854   -3.5614    1.3143 H   0  0  0  0  0  0  0  0  0  0  0  0
    5.8209   -4.2111    0.7668 H   0  0  0  0  0  0  0  0  0  0  0  0
    6.4245   -2.1554   -0.5158 H   0  0  0  0  0  0  0  0  0  0  0  0
    6.5113   -1.2361    1.0208 H   0  0  0  0  0  0  0  0  0  0  0  0
    2.3253    2.6718    0.7216 H   0  0  0  0  0  0  0  0  0  0  0  0
    3.7275    1.6954    1.1631 H   0  0  0  0  0  0  0  0  0  0  0  0
    3.4617    2.1811   -0.5400 H   0  0  0  0  0  0  0  0  0  0  0  0
    3.0596   -3.2827   -0.0020 H   0  0  0  0  0  0  0  0  0  0  0  0
    2.7791   -2.9680   -1.5858 H   0  0  0  0  0  0  0  0  0  0  0  0
   -1.0814   -2.5520    1.4487 H   0  0  0  0  0  0  0  0  0  0  0  0
   -2.7890   -2.8300    1.6733 H   0  0  0  0  0  0  0  0  0  0  0  0
   -2.0383   -3.2290    0.1101 H   0  0  0  0  0  0  0  0  0  0  0  0
   -6.2352   -2.6700    0.5413 H   0  0  0  0  0  0  0  0  0  0  0  0
   -4.6094   -3.1348    0.3136 H   0  0  0  0  0  0  0  0  0  0  0  0
   -6.0655    3.5330   -1.0042 H   0  0  0  0  0  0  0  0  0  0  0  0
   -8.0952    4.8759   -1.3441 H   0  0  0  0  0  0  0  0  0  0  0  0
  -10.3362    3.8931   -0.9282 H   0  0  0  0  0  0  0  0  0  0  0  0
  -10.5259    1.5396   -0.1629 H   0  0  0  0  0  0  0  0  0  0  0  0
   -8.5085    0.1786    0.1847 H   0  0  0  0  0  0  0  0  0  0  0  0
  1  2  1  0
  2  3  1  0
  3  4  1  0
  4  5  2  0
  4  6  1  0
  6  7  2  0
  7  8  1  0
  7  9  1  0
  6 10  1  0
 10 11  1  0
 10 12  2  0
 12 13  1  0
 13 14  1  0
 14 15  2  0
 15 16  1  0
 14 17  1  0
 17 18  1  0
 18 19  2  0
 18 20  1  0
 20 21  2  0
 21 22  1  0
 22 23  2  0
 23 24  1  0
 21 25  1  0
 25 26  2  0
 26 27  1  0
 27 28  2  0
 28 29  1  0
 29 30  2  0
 13  8  2  0
 19 15  1  0
 23 19  1  0
 30 25  1  0
  1 31  1  0
  1 32  1  0
  1 33  1  0
  2 34  1  0
  2 35  1  0
  9 36  1  0
  9 37  1  0
  9 38  1  0
 11 39  1  0
 11 40  1  0
 16 41  1  0
 16 42  1  0
 16 43  1  0
 24 44  1  0
 24 45  1  0
 26 46  1  0
 27 47  1  0
 28 48  1  0
 29 49  1  0
 30 50  1  0
M  END
>  <mol_id>  (24) 
STK772687

>  <drugclip_rank>  (24) 
24

>  <conformer>  (24) 
11

>  <align_rmsd>  (24) 
0.826

$$$$
OSSL_958627
     RDKit          3D

 46 47  0  0  0  0  0  0  0  0999 V2000
    6.8515   -2.2533    1.1127 C   0  0  0  0  0  0  0  0  0  0  0  0
    6.1365   -2.5439   -0.1934 C   0  0  0  0  0  0  0  0  0  0  0  0
    4.7437   -2.2053   -0.0800 O   0  0  0  0  0  0  0  0  0  0  0  0
    4.4256   -0.9166   -0.3570 C   0  0  0  0  0  0  0  0  0  0  0  0
    5.2095   -0.0397   -0.6830 O   0  0  0  0  0  0  0  0  0  0  0  0
    2.9867   -0.6687   -0.1671 C   0  0  0  0  0  0  0  0  0  0  0  0
    2.5749    0.6388   -0.0057 C   0  0  0  0  0  0  0  0  0  0  0  0
    1.2914    1.0045    0.1894 N   0  0  0  0  0  0  0  0  0  0  0  0
    0.3921    0.0123    0.2174 C   0  0  0  0  0  0  0  0  0  0  0  0
    0.6889   -1.2844    0.0489 N   0  0  0  0  0  0  0  0  0  0  0  0
    1.9798   -1.6222   -0.1324 C   0  0  0  0  0  0  0  0  0  0  0  0
    2.1985   -2.9886   -0.3571 N   0  0  0  0  0  0  0  0  0  0  0  0
   -1.2989    0.4846    0.4588 S   0  0  0  0  0  0  0  0  0  0  0  0
   -2.0351   -1.1553    0.7604 C   0  0  0  0  0  0  0  0  0  0  0  0
   -3.5221   -1.0626    1.0795 C   0  0  0  0  0  0  0  0  0  0  0  0
   -4.0210   -1.8144    1.9145 O   0  0  0  0  0  0  0  0  0  0  0  0
   -4.2097   -0.1460    0.3023 N   0  0  0  0  0  0  0  0  0  0  0  0
   -5.5900    0.1308    0.3007 C   0  0  0  0  0  0  0  0  0  0  0  0
   -6.5302   -0.5718    1.0544 C   0  0  0  0  0  0  0  0  0  0  0  0
   -7.8910   -0.2366    0.9956 C   0  0  0  0  0  0  0  0  0  0  0  0
   -8.3259    0.8060    0.1804 C   0  0  0  0  0  0  0  0  0  0  0  0
   -7.3880    1.5084   -0.5762 C   0  0  0  0  0  0  0  0  0  0  0  0
   -6.0313    1.1744   -0.5193 C   0  0  0  0  0  0  0  0  0  0  0  0
   -9.6162    1.2331    0.0343 O   0  0  0  0  0  0  0  0  0  0  0  0
  -10.6156    0.5410    0.7813 C   0  0  0  0  0  0  0  0  0  0  0  0
  -11.9572    1.1805    0.4725 C   0  0  0  0  0  0  0  0  0  0  0  0
    6.3706   -2.7852    1.9403 H   0  0  0  0  0  0  0  0  0  0  0  0
    6.8112   -1.1863    1.3538 H   0  0  0  0  0  0  0  0  0  0  0  0
    7.8998   -2.5598    1.0577 H   0  0  0  0  0  0  0  0  0  0  0  0
    6.1870   -3.6158   -0.4111 H   0  0  0  0  0  0  0  0  0  0  0  0
    6.6065   -2.0210   -1.0343 H   0  0  0  0  0  0  0  0  0  0  0  0
    3.2831    1.4648   -0.0233 H   0  0  0  0  0  0  0  0  0  0  0  0
    2.5082   -3.1389   -1.3140 H   0  0  0  0  0  0  0  0  0  0  0  0
    2.9575   -3.3152    0.2414 H   0  0  0  0  0  0  0  0  0  0  0  0
   -1.9222   -1.7957   -0.1205 H   0  0  0  0  0  0  0  0  0  0  0  0
   -1.5349   -1.6198    1.6167 H   0  0  0  0  0  0  0  0  0  0  0  0
   -3.6305    0.4498   -0.2803 H   0  0  0  0  0  0  0  0  0  0  0  0
   -6.2413   -1.3936    1.7021 H   0  0  0  0  0  0  0  0  0  0  0  0
   -8.5787   -0.8157    1.6029 H   0  0  0  0  0  0  0  0  0  0  0  0
   -7.7156    2.3245   -1.2158 H   0  0  0  0  0  0  0  0  0  0  0  0
   -5.3317    1.7456   -1.1233 H   0  0  0  0  0  0  0  0  0  0  0  0
  -10.6465   -0.5146    0.4879 H   0  0  0  0  0  0  0  0  0  0  0  0
  -10.4175    0.6284    1.8560 H   0  0  0  0  0  0  0  0  0  0  0  0
  -12.1722    1.1278   -0.5999 H   0  0  0  0  0  0  0  0  0  0  0  0
  -12.7622    0.6808    1.0191 H   0  0  0  0  0  0  0  0  0  0  0  0
  -11.9501    2.2413    0.7442 H   0  0  0  0  0  0  0  0  0  0  0  0
  1  2  1  0
  2  3  1  0
  3  4  1  0
  4  5  2  0
  4  6  1  0
  6  7  2  0
  7  8  1  0
  8  9  2  0
  9 10  1  0
 10 11  2  0
 11 12  1  0
  9 13  1  0
 13 14  1  0
 14 15  1  0
 15 16  2  0
 15 17  1  0
 17 18  1  0
 18 19  2  0
 19 20  1  0
 20 21  2  0
 21 22  1  0
 22 23  2  0
 21 24  1  0
 24 25  1  0
 25 26  1  0
 11  6  1  0
 23 18  1  0
  1 27  1  0
  1 28  1  0
  1 29  1  0
  2 30  1  0
  2 31  1  0
  7 32  1  0
 12 33  1  0
 12 34  1  0
 14 35  1  0
 14 36  1  0
 17 37  1  0
 19 38  1  0
 20 39  1  0
 22 40  1  0
 23 41  1  0
 25 42  1  0
 25 43  1  0
 26 44  1  0
 26 45  1  0
 26 46  1  0
M  END
>  <mol_id>  (25) 
OSSL_958627

>  <drugclip_rank>  (25) 
25

>  <conformer>  (25) 
33

>  <align_rmsd>  (25) 
0.541

$$$$
OSSL_410201
     RDKit          3D

 53 57  0  0  0  0  0  0  0  0999 V2000
   -4.6673    0.8868    0.3102 C   0  0  0  0  0  0  0  0  0  0  0  0
   -5.2864   -0.1807   -0.6069 C   0  0  0  0  0  0  0  0  0  0  0  0
   -6.2849   -0.9450    0.0888 O   0  0  0  0  0  0  0  0  0  0  0  0
   -5.7089   -1.6005    1.2350 C   0  0  0  0  0  0  0  0  0  0  0  0
   -5.0957   -0.5758    2.2009 C   0  0  0  0  0  0  0  0  0  0  0  0
   -4.0724    0.2428    1.5028 N   0  0  0  0  0  0  0  0  0  0  0  0
   -2.7795   -0.2426    1.4515 C   0  0  0  0  0  0  0  0  0  0  0  0
   -2.4709   -1.4449    1.8121 N   0  0  0  0  0  0  0  0  0  0  0  0
   -1.8164    0.6239    1.0156 N   0  0  0  0  0  0  0  0  0  0  0  0
   -0.4746    0.3414    0.9640 C   0  0  0  0  0  0  0  0  0  0  0  0
    0.3266    1.2144    0.6563 O   0  0  0  0  0  0  0  0  0  0  0  0
   -0.0966   -1.0391    1.3145 C   0  0  0  0  0  0  0  0  0  0  0  0
   -1.1393   -1.8621    1.7265 C   0  0  0  0  0  0  0  0  0  0  0  0
    1.2063   -1.5629    1.2590 C   0  0  0  0  0  0  0  0  0  0  0  0
    1.3820   -2.9056    1.6278 C   0  0  0  0  0  0  0  0  0  0  0  0
    0.2849   -3.6485    2.0261 C   0  0  0  0  0  0  0  0  0  0  0  0
   -0.9659   -3.1557    2.0816 N   0  0  0  0  0  0  0  0  0  0  0  0
    2.3876   -0.8022    0.8363 C   0  0  0  0  0  0  0  0  0  0  0  0
    2.8897   -0.9261   -0.4661 C   0  0  0  0  0  0  0  0  0  0  0  0
    4.0336   -0.2244   -0.8567 C   0  0  0  0  0  0  0  0  0  0  0  0
    4.6972    0.6139    0.0407 C   0  0  0  0  0  0  0  0  0  0  0  0
    4.2096    0.7402    1.3406 C   0  0  0  0  0  0  0  0  0  0  0  0
    3.0655    0.0347    1.7347 C   0  0  0  0  0  0  0  0  0  0  0  0
    5.7993    1.2390   -0.4726 O   0  0  0  0  0  0  0  0  0  0  0  0
    6.4559    2.1858    0.3658 C   0  0  0  0  0  0  0  0  0  0  0  0
    7.5892    2.8010   -0.4178 C   0  0  0  0  0  0  0  0  0  0  0  0
    7.3501    3.8799   -1.2810 C   0  0  0  0  0  0  0  0  0  0  0  0
    8.3941    4.4434   -2.0162 C   0  0  0  0  0  0  0  0  0  0  0  0
    9.6844    3.9290   -1.9028 C   0  0  0  0  0  0  0  0  0  0  0  0
    9.9311    2.8472   -1.0593 C   0  0  0  0  0  0  0  0  0  0  0  0
    8.8882    2.2822   -0.3231 C   0  0  0  0  0  0  0  0  0  0  0  0
   -5.4501    1.5759    0.6495 H   0  0  0  0  0  0  0  0  0  0  0  0
   -3.9336    1.4794   -0.2449 H   0  0  0  0  0  0  0  0  0  0  0  0
   -4.5225   -0.8627   -0.9985 H   0  0  0  0  0  0  0  0  0  0  0  0
   -5.7753    0.3013   -1.4592 H   0  0  0  0  0  0  0  0  0  0  0  0
   -6.5120   -2.1491    1.7371 H   0  0  0  0  0  0  0  0  0  0  0  0
   -4.9689   -2.3313    0.8901 H   0  0  0  0  0  0  0  0  0  0  0  0
   -5.8818    0.1015    2.5570 H   0  0  0  0  0  0  0  0  0  0  0  0
   -4.6777   -1.0700    3.0850 H   0  0  0  0  0  0  0  0  0  0  0  0
   -2.0643    1.5858    0.8490 H   0  0  0  0  0  0  0  0  0  0  0  0
    2.3656   -3.3671    1.6064 H   0  0  0  0  0  0  0  0  0  0  0  0
    0.3873   -4.6897    2.3189 H   0  0  0  0  0  0  0  0  0  0  0  0
    2.3914   -1.5666   -1.1902 H   0  0  0  0  0  0  0  0  0  0  0  0
    4.4073   -0.3273   -1.8727 H   0  0  0  0  0  0  0  0  0  0  0  0
    4.6882    1.3782    2.0755 H   0  0  0  0  0  0  0  0  0  0  0  0
    2.6985    0.1530    2.7522 H   0  0  0  0  0  0  0  0  0  0  0  0
    6.8561    1.6937    1.2612 H   0  0  0  0  0  0  0  0  0  0  0  0
    5.7635    2.9785    0.6771 H   0  0  0  0  0  0  0  0  0  0  0  0
    6.3445    4.2811   -1.3889 H   0  0  0  0  0  0  0  0  0  0  0  0
    8.1988    5.2796   -2.6823 H   0  0  0  0  0  0  0  0  0  0  0  0
   10.4961    4.3658   -2.4783 H   0  0  0  0  0  0  0  0  0  0  0  0
   10.9351    2.4390   -0.9792 H   0  0  0  0  0  0  0  0  0  0  0  0
    9.0931    1.4299    0.3209 H   0  0  0  0  0  0  0  0  0  0  0  0
  1  2  1  0
  2  3  1  0
  3  4  1  0
  4  5  1  0
  5  6  1  0
  6  7  1  0
  7  8  2  0
  7  9  1  0
  9 10  1  0
 10 11  2  0
 10 12  1  0
 12 13  2  0
 12 14  1  0
 14 15  2  0
 15 16  1  0
 16 17  2  0
 14 18  1  0
 18 19  2  0
 19 20  1  0
 20 21  2  0
 21 22  1  0
 22 23  2  0
 21 24  1  0
 24 25  1  0
 25 26  1  0
 26 27  2  0
 27 28  1  0
 28 29  2  0
 29 30  1  0
 30 31  2  0
  6  1  1  0
 13  8  1  0
 17 13  1  0
 23 18  1  0
 31 26  1  0
  1 32  1  0
  1 33  1  0
  2 34  1  0
  2 35  1  0
  4 36  1  0
  4 37  1  0
  5 38  1  0
  5 39  1  0
  9 40  1  0
 15 41  1  0
 16 42  1  0
 19 43  1  0
 20 44  1  0
 22 45  1  0
 23 46  1  0
 25 47  1  0
 25 48  1  0
 27 49  1  0
 28 50  1  0
 29 51  1  0
 30 52  1  0
 31 53  1  0
M  END
>  <mol_id>  (26) 
OSSL_410201

>  <drugclip_rank>  (26) 
26

>  <conformer>  (26) 
0

>  <align_rmsd>  (26) 
0.635

$$$$
Z8759538851
     RDKit          3D

 47 50  0  0  0  0  0  0  0  0999 V2000
    5.3792    4.3436   -2.3681 C   0  0  0  0  0  0  0  0  0  0  0  0
    5.7617    2.9025   -2.0925 C   0  0  0  0  0  0  0  0  0  0  0  0
    4.6238    2.2402   -1.5253 O   0  0  0  0  0  0  0  0  0  0  0  0
    4.8361    0.9291   -1.2249 C   0  0  0  0  0  0  0  0  0  0  0  0
    5.8830    0.3296   -1.4153 O   0  0  0  0  0  0  0  0  0  0  0  0
    3.6008    0.3214   -0.6337 C   0  0  0  0  0  0  0  0  0  0  0  0
    2.4383    1.0484   -0.4794 C   0  0  0  0  0  0  0  0  0  0  0  0
    1.3570    0.3869    0.0620 C   0  0  0  0  0  0  0  0  0  0  0  0
    1.4708   -0.8989    0.4397 N   0  0  0  0  0  0  0  0  0  0  0  0
    2.6394   -1.5196    0.2698 C   0  0  0  0  0  0  0  0  0  0  0  0
    3.7149   -0.9728   -0.2763 N   0  0  0  0  0  0  0  0  0  0  0  0
    2.7217   -2.8418    0.6500 N   0  0  0  0  0  0  0  0  0  0  0  0
    0.1421    1.0443    0.2649 N   0  0  0  0  0  0  0  0  0  0  0  0
   -0.8589    0.3125    1.0471 C   0  0  0  0  0  0  0  0  0  0  0  0
   -1.9758    1.2674    1.4613 C   0  0  0  0  0  0  0  0  0  0  0  0
   -2.6451    1.9319    0.2478 C   0  0  0  0  0  0  0  0  0  0  0  0
   -1.8146    1.8099   -1.0364 C   0  0  0  0  0  0  0  0  0  0  0  0
   -0.3264    1.9886   -0.7543 C   0  0  0  0  0  0  0  0  0  0  0  0
   -4.0690    1.4707    0.0314 C   0  0  0  0  0  0  0  0  0  0  0  0
   -5.0945    2.3007    0.0207 N   0  0  0  0  0  0  0  0  0  0  0  0
   -4.4560   -0.1921   -0.2310 S   0  0  0  0  0  0  0  0  0  0  0  0
   -6.1013    0.2209   -0.3608 C   0  0  0  0  0  0  0  0  0  0  0  0
   -6.2632    1.5932   -0.2007 C   0  0  0  0  0  0  0  0  0  0  0  0
   -7.0678   -0.6934   -0.5878 N   0  0  0  0  0  0  0  0  0  0  0  0
   -8.3049   -0.1531   -0.6549 C   0  0  0  0  0  0  0  0  0  0  0  0
   -8.6086    1.1943   -0.5136 C   0  0  0  0  0  0  0  0  0  0  0  0
   -7.5717    2.0979   -0.2810 C   0  0  0  0  0  0  0  0  0  0  0  0
    4.5288    4.3918   -3.0563 H   0  0  0  0  0  0  0  0  0  0  0  0
    6.2180    4.8936   -2.8037 H   0  0  0  0  0  0  0  0  0  0  0  0
    5.0697    4.8436   -1.4443 H   0  0  0  0  0  0  0  0  0  0  0  0
    6.5987    2.8704   -1.3861 H   0  0  0  0  0  0  0  0  0  0  0  0
    6.0475    2.4102   -3.0287 H   0  0  0  0  0  0  0  0  0  0  0  0
    2.3814    2.0932   -0.7492 H   0  0  0  0  0  0  0  0  0  0  0  0
    3.4593   -3.3052    0.1376 H   0  0  0  0  0  0  0  0  0  0  0  0
    1.8056   -3.2663    0.6404 H   0  0  0  0  0  0  0  0  0  0  0  0
   -0.4116   -0.0917    1.9643 H   0  0  0  0  0  0  0  0  0  0  0  0
   -1.2625   -0.5294    0.4711 H   0  0  0  0  0  0  0  0  0  0  0  0
   -2.6980    0.7484    2.1023 H   0  0  0  0  0  0  0  0  0  0  0  0
   -1.5343    2.0570    2.0855 H   0  0  0  0  0  0  0  0  0  0  0  0
   -2.7119    3.0043    0.4854 H   0  0  0  0  0  0  0  0  0  0  0  0
   -1.9653    0.8326   -1.5129 H   0  0  0  0  0  0  0  0  0  0  0  0
   -2.1469    2.5576   -1.7674 H   0  0  0  0  0  0  0  0  0  0  0  0
   -0.1331    3.0093   -0.4034 H   0  0  0  0  0  0  0  0  0  0  0  0
    0.2057    1.8630   -1.7055 H   0  0  0  0  0  0  0  0  0  0  0  0
   -9.1000   -0.8738   -0.8368 H   0  0  0  0  0  0  0  0  0  0  0  0
   -9.6357    1.5372   -0.5830 H   0  0  0  0  0  0  0  0  0  0  0  0
   -7.7587    3.1592   -0.1637 H   0  0  0  0  0  0  0  0  0  0  0  0
  1  2  1  0
  2  3  1  0
  3  4  1  0
  4  5  2  0
  4  6  1  0
  6  7  2  0
  7  8  1  0
  8  9  2  0
  9 10  1  0
 10 11  2  0
 10 12  1  0
  8 13  1  0
 13 14  1  0
 14 15  1  0
 15 16  1  0
 16 17  1  0
 17 18  1  0
 16 19  1  0
 19 20  2  0
 19 21  1  0
 21 22  1  0
 22 23  2  0
 22 24  1  0
 24 25  2  0
 25 26  1  0
 26 27  2  0
 11  6  1  0
 18 13  1  0
 23 20  1  0
 27 23  1  0
  1 28  1  0
  1 29  1  0
  1 30  1  0
  2 31  1  0
  2 32  1  0
  7 33  1  0
 12 34  1  0
 12 35  1  0
 14 36  1  0
 14 37  1  0
 15 38  1  0
 15 39  1  0
 16 40  1  0
 17 41  1  0
 17 42  1  0
 18 43  1  0
 18 44  1  0
 25 45  1  0
 26 46  1  0
 27 47  1  0
M  END
>  <mol_id>  (27) 
Z8759538851

>  <drugclip_rank>  (27) 
27

>  <conformer>  (27) 
35

>  <align_rmsd>  (27) 
1.214

$$$$
STK871437
     RDKit          3D

 53 57  0  0  0  0  0  0  0  0999 V2000
   -4.6673    0.8868    0.3102 C   0  0  0  0  0  0  0  0  0  0  0  0
   -5.2864   -0.1807   -0.6069 C   0  0  0  0  0  0  0  0  0  0  0  0
   -6.2849   -0.9450    0.0888 O   0  0  0  0  0  0  0  0  0  0  0  0
   -5.7089   -1.6005    1.2350 C   0  0  0  0  0  0  0  0  0  0  0  0
   -5.0957   -0.5758    2.2009 C   0  0  0  0  0  0  0  0  0  0  0  0
   -4.0724    0.2428    1.5028 N   0  0  0  0  0  0  0  0  0  0  0  0
   -2.7795   -0.2426    1.4515 C   0  0  0  0  0  0  0  0  0  0  0  0
   -2.4709   -1.4449    1.8121 N   0  0  0  0  0  0  0  0  0  0  0  0
   -1.8164    0.6239    1.0156 N   0  0  0  0  0  0  0  0  0  0  0  0
   -0.4746    0.3414    0.9640 C   0  0  0  0  0  0  0  0  0  0  0  0
    0.3266    1.2144    0.6563 O   0  0  0  0  0  0  0  0  0  0  0  0
   -0.0966   -1.0391    1.3145 C   0  0  0  0  0  0  0  0  0  0  0  0
   -1.1393   -1.8621    1.7265 C   0  0  0  0  0  0  0  0  0  0  0  0
    1.2063   -1.5629    1.2590 C   0  0  0  0  0  0  0  0  0  0  0  0
    1.3820   -2.9056    1.6278 C   0  0  0  0  0  0  0  0  0  0  0  0
    0.2849   -3.6485    2.0261 C   0  0  0  0  0  0  0  0  0  0  0  0
   -0.9659   -3.1557    2.0816 N   0  0  0  0  0  0  0  0  0  0  0  0
    2.3876   -0.8022    0.8363 C   0  0  0  0  0  0  0  0  0  0  0  0
    2.8897   -0.9261   -0.4661 C   0  0  0  0  0  0  0  0  0  0  0  0
    4.0336   -0.2244   -0.8567 C   0  0  0  0  0  0  0  0  0  0  0  0
    4.6972    0.6139    0.0407 C   0  0  0  0  0  0  0  0  0  0  0  0
    4.2096    0.7402    1.3406 C   0  0  0  0  0  0  0  0  0  0  0  0
    3.0655    0.0347    1.7347 C   0  0  0  0  0  0  0  0  0  0  0  0
    5.7993    1.2390   -0.4726 O   0  0  0  0  0  0  0  0  0  0  0  0
    6.4559    2.1858    0.3658 C   0  0  0  0  0  0  0  0  0  0  0  0
    7.5892    2.8010   -0.4178 C   0  0  0  0  0  0  0  0  0  0  0  0
    7.3501    3.8799   -1.2810 C   0  0  0  0  0  0  0  0  0  0  0  0
    8.3941    4.4434   -2.0162 C   0  0  0  0  0  0  0  0  0  0  0  0
    9.6844    3.9290   -1.9028 C   0  0  0  0  0  0  0  0  0  0  0  0
    9.9311    2.8472   -1.0593 C   0  0  0  0  0  0  0  0  0  0  0  0
    8.8882    2.2822   -0.3231 C   0  0  0  0  0  0  0  0  0  0  0  0
   -5.4501    1.5759    0.6495 H   0  0  0  0  0  0  0  0  0  0  0  0
   -3.9336    1.4794   -0.2449 H   0  0  0  0  0  0  0  0  0  0  0  0
   -4.5225   -0.8627   -0.9985 H   0  0  0  0  0  0  0  0  0  0  0  0
   -5.7753    0.3013   -1.4592 H   0  0  0  0  0  0  0  0  0  0  0  0
   -6.5120   -2.1491    1.7371 H   0  0  0  0  0  0  0  0  0  0  0  0
   -4.9689   -2.3313    0.8901 H   0  0  0  0  0  0  0  0  0  0  0  0
   -5.8818    0.1015    2.5570 H   0  0  0  0  0  0  0  0  0  0  0  0
   -4.6777   -1.0700    3.0850 H   0  0  0  0  0  0  0  0  0  0  0  0
   -2.0643    1.5858    0.8490 H   0  0  0  0  0  0  0  0  0  0  0  0
    2.3656   -3.3671    1.6064 H   0  0  0  0  0  0  0  0  0  0  0  0
    0.3873   -4.6897    2.3189 H   0  0  0  0  0  0  0  0  0  0  0  0
    2.3914   -1.5666   -1.1902 H   0  0  0  0  0  0  0  0  0  0  0  0
    4.4073   -0.3273   -1.8727 H   0  0  0  0  0  0  0  0  0  0  0  0
    4.6882    1.3782    2.0755 H   0  0  0  0  0  0  0  0  0  0  0  0
    2.6985    0.1530    2.7522 H   0  0  0  0  0  0  0  0  0  0  0  0
    6.8561    1.6937    1.2612 H   0  0  0  0  0  0  0  0  0  0  0  0
    5.7635    2.9785    0.6771 H   0  0  0  0  0  0  0  0  0  0  0  0
    6.3445    4.2811   -1.3889 H   0  0  0  0  0  0  0  0  0  0  0  0
    8.1988    5.2796   -2.6823 H   0  0  0  0  0  0  0  0  0  0  0  0
   10.4961    4.3658   -2.4783 H   0  0  0  0  0  0  0  0  0  0  0  0
   10.9351    2.4390   -0.9792 H   0  0  0  0  0  0  0  0  0  0  0  0
    9.0931    1.4299    0.3209 H   0  0  0  0  0  0  0  0  0  0  0  0
  1  2  1  0
  2  3  1  0
  3  4  1  0
  4  5  1  0
  5  6  1  0
  6  7  1  0
  7  8  2  0
  7  9  1  0
  9 10  1  0
 10 11  2  0
 10 12  1  0
 12 13  2  0
 12 14  1  0
 14 15  2  0
 15 16  1  0
 16 17  2  0
 14 18  1  0
 18 19  2  0
 19 20  1  0
 20 21  2  0
 21 22  1  0
 22 23  2  0
 21 24  1  0
 24 25  1  0
 25 26  1  0
 26 27  2  0
 27 28  1  0
 28 29  2  0
 29 30  1  0
 30 31  2  0
  6  1  1  0
 13  8  1  0
 17 13  1  0
 23 18  1  0
 31 26  1  0
  1 32  1  0
  1 33  1  0
  2 34  1  0
  2 35  1  0
  4 36  1  0
  4 37  1  0
  5 38  1  0
  5 39  1  0
  9 40  1  0
 15 41  1  0
 16 42  1  0
 19 43  1  0
 20 44  1  0
 22 45  1  0
 23 46  1  0
 25 47  1  0
 25 48  1  0
 27 49  1  0
 28 50  1  0
 29 51  1  0
 30 52  1  0
 31 53  1  0
M  END
>  <mol_id>  (28) 
STK871437

>  <drugclip_rank>  (28) 
28

>  <conformer>  (28) 
0

>  <align_rmsd>  (28) 
0.635

$$$$
OSSM_285411
     RDKit          3D

 45 47  0  0  0  0  0  0  0  0999 V2000
   -8.8461    2.6469   -2.1334 C   0  0  0  0  0  0  0  0  0  0  0  0
   -8.6088    2.4474   -0.6482 C   0  0  0  0  0  0  0  0  0  0  0  0
   -7.7809    1.2984   -0.4288 O   0  0  0  0  0  0  0  0  0  0  0  0
   -6.4321    1.5106   -0.4770 C   0  0  0  0  0  0  0  0  0  0  0  0
   -5.9151    2.6009   -0.6948 O   0  0  0  0  0  0  0  0  0  0  0  0
   -5.6717    0.2865   -0.2404 C   0  0  0  0  0  0  0  0  0  0  0  0
   -6.2477   -0.9540    0.0106 N   0  0  0  0  0  0  0  0  0  0  0  0
   -5.2396   -1.7853    0.1529 C   0  0  0  0  0  0  0  0  0  0  0  0
   -4.2910    0.1747   -0.2345 C   0  0  0  0  0  0  0  0  0  0  0  0
   -4.0286   -1.1527    0.0374 N   0  0  0  0  0  0  0  0  0  0  0  0
   -3.2604    1.0422   -0.4281 N   0  0  0  0  0  0  0  0  0  0  0  0
   -2.0705    0.6325   -0.3620 N   0  0  0  0  0  0  0  0  0  0  0  0
   -1.7632   -0.6928   -0.0758 C   0  0  0  0  0  0  0  0  0  0  0  0
   -2.7169   -1.6352    0.1373 C   0  0  0  0  0  0  0  0  0  0  0  0
   -2.5243   -2.9879    0.4173 N   0  0  0  0  0  0  0  0  0  0  0  0
   -0.2977   -1.0556    0.0186 C   0  0  0  0  0  0  0  0  0  0  0  0
    0.0554   -2.1681    0.4009 O   0  0  0  0  0  0  0  0  0  0  0  0
    0.5304   -0.0108   -0.3480 N   0  0  0  0  0  0  0  0  0  0  0  0
    1.9381    0.0098   -0.3819 C   0  0  0  0  0  0  0  0  0  0  0  0
    2.5494    1.2028   -0.7811 C   0  0  0  0  0  0  0  0  0  0  0  0
    3.9428    1.3019   -0.8408 C   0  0  0  0  0  0  0  0  0  0  0  0
    4.7484    0.2142   -0.5047 C   0  0  0  0  0  0  0  0  0  0  0  0
    4.1436   -0.9763   -0.1073 C   0  0  0  0  0  0  0  0  0  0  0  0
    2.7458   -1.0771   -0.0466 C   0  0  0  0  0  0  0  0  0  0  0  0
    6.0918    0.4434   -0.6056 O   0  0  0  0  0  0  0  0  0  0  0  0
    6.9611   -0.6391   -0.2776 C   0  0  0  0  0  0  0  0  0  0  0  0
    8.3911   -0.1634   -0.4617 C   0  0  0  0  0  0  0  0  0  0  0  0
   -7.9062    2.8426   -2.6591 H   0  0  0  0  0  0  0  0  0  0  0  0
   -9.5250    3.4863   -2.3082 H   0  0  0  0  0  0  0  0  0  0  0  0
   -9.2779    1.7444   -2.5783 H   0  0  0  0  0  0  0  0  0  0  0  0
   -8.1794    3.3436   -0.1860 H   0  0  0  0  0  0  0  0  0  0  0  0
   -9.5629    2.2546   -0.1468 H   0  0  0  0  0  0  0  0  0  0  0  0
   -5.3218   -2.8483    0.3362 H   0  0  0  0  0  0  0  0  0  0  0  0
   -3.0652   -3.3151    1.2160 H   0  0  0  0  0  0  0  0  0  0  0  0
   -1.5257   -3.1951    0.5732 H   0  0  0  0  0  0  0  0  0  0  0  0
    0.0634    0.8481   -0.6222 H   0  0  0  0  0  0  0  0  0  0  0  0
    1.9571    2.0730   -1.0515 H   0  0  0  0  0  0  0  0  0  0  0  0
    4.4036    2.2361   -1.1527 H   0  0  0  0  0  0  0  0  0  0  0  0
    4.7246   -1.8516    0.1639 H   0  0  0  0  0  0  0  0  0  0  0  0
    2.3237   -2.0264    0.2672 H   0  0  0  0  0  0  0  0  0  0  0  0
    6.8163   -0.9406    0.7663 H   0  0  0  0  0  0  0  0  0  0  0  0
    6.7785   -1.4895   -0.9447 H   0  0  0  0  0  0  0  0  0  0  0  0
    8.5963    0.6989    0.1813 H   0  0  0  0  0  0  0  0  0  0  0  0
    9.1009   -0.9599   -0.2217 H   0  0  0  0  0  0  0  0  0  0  0  0
    8.5595    0.1614   -1.4939 H   0  0  0  0  0  0  0  0  0  0  0  0
  1  2  1  0
  2  3  1  0
  3  4  1  0
  4  5  2  0
  4  6  1  0
  6  7  1  0
  7  8  2  0
  6  9  2  0
  9 10  1  0
  9 11  1  0
 11 12  2  0
 12 13  1  0
 13 14  2  0
 14 15  1  0
 13 16  1  0
 16 17  2  0
 16 18  1  0
 18 19  1  0
 19 20  2  0
 20 21  1  0
 21 22  2  0
 22 23  1  0
 23 24  2  0
 22 25  1  0
 25 26  1  0
 26 27  1  0
 10  8  1  0
 14 10  1  0
 24 19  1  0
  1 28  1  0
  1 29  1  0
  1 30  1  0
  2 31  1  0
  2 32  1  0
  8 33  1  0
 15 34  1  0
 15 35  1  0
 18 36  1  0
 20 37  1  0
 21 38  1  0
 23 39  1  0
 24 40  1  0
 26 41  1  0
 26 42  1  0
 27 43  1  0
 27 44  1  0
 27 45  1  0
M  END
>  <mol_id>  (29) 
OSSM_285411

>  <drugclip_rank>  (29) 
29

>  <conformer>  (29) 
1

>  <align_rmsd>  (29) 
0.68

$$$$
MCULE-1210523155
     RDKit          3D

 53 57  0  0  0  0  0  0  0  0999 V2000
   -2.4278   -1.5028    1.6770 N   0  0  0  0  0  0  0  0  0  0  0  0
   -2.7478   -0.2887    1.3698 C   0  0  0  0  0  0  0  0  0  0  0  0
   -1.8173    0.5688    0.8527 N   0  0  0  0  0  0  0  0  0  0  0  0
   -0.4947    0.2619    0.6533 C   0  0  0  0  0  0  0  0  0  0  0  0
    0.2850    1.1219    0.2645 O   0  0  0  0  0  0  0  0  0  0  0  0
   -0.1091   -1.1297    0.9471 C   0  0  0  0  0  0  0  0  0  0  0  0
   -1.1188   -1.9403    1.4545 C   0  0  0  0  0  0  0  0  0  0  0  0
   -0.9314   -3.2392    1.7818 N   0  0  0  0  0  0  0  0  0  0  0  0
    0.3013   -3.7489    1.6037 C   0  0  0  0  0  0  0  0  0  0  0  0
    1.3659   -3.0183    1.1069 C   0  0  0  0  0  0  0  0  0  0  0  0
    1.1742   -1.6713    0.7630 C   0  0  0  0  0  0  0  0  0  0  0  0
    2.3187   -0.9234    0.2319 C   0  0  0  0  0  0  0  0  0  0  0  0
    3.2663   -0.3561    1.0945 C   0  0  0  0  0  0  0  0  0  0  0  0
    4.3727    0.3283    0.5838 C   0  0  0  0  0  0  0  0  0  0  0  0
    4.5498    0.4673   -0.7936 C   0  0  0  0  0  0  0  0  0  0  0  0
    3.6231   -0.1086   -1.6607 C   0  0  0  0  0  0  0  0  0  0  0  0
    2.5157   -0.7972   -1.1509 C   0  0  0  0  0  0  0  0  0  0  0  0
    5.6757    1.1498   -1.1629 O   0  0  0  0  0  0  0  0  0  0  0  0
    5.7101    1.7107   -2.4790 C   0  0  0  0  0  0  0  0  0  0  0  0
    6.3049    0.7798   -3.5128 C   0  0  0  0  0  0  0  0  0  0  0  0
    5.9172    0.8926   -4.8567 C   0  0  0  0  0  0  0  0  0  0  0  0
    6.4762    0.0615   -5.8294 C   0  0  0  0  0  0  0  0  0  0  0  0
    7.4358   -0.8835   -5.4721 C   0  0  0  0  0  0  0  0  0  0  0  0
    7.8405   -0.9953   -4.1437 C   0  0  0  0  0  0  0  0  0  0  0  0
    7.2830   -0.1645   -3.1701 C   0  0  0  0  0  0  0  0  0  0  0  0
   -4.0194    0.2180    1.5599 N   0  0  0  0  0  0  0  0  0  0  0  0
   -4.9813   -0.5939    2.3472 C   0  0  0  0  0  0  0  0  0  0  0  0
   -5.7093   -1.5919    1.4345 C   0  0  0  0  0  0  0  0  0  0  0  0
   -6.3869   -0.9077    0.3629 O   0  0  0  0  0  0  0  0  0  0  0  0
   -5.4504   -0.1493   -0.4201 C   0  0  0  0  0  0  0  0  0  0  0  0
   -4.7205    0.8919    0.4441 C   0  0  0  0  0  0  0  0  0  0  0  0
   -2.0624    1.5374    0.7260 H   0  0  0  0  0  0  0  0  0  0  0  0
    0.4160   -4.7937    1.8782 H   0  0  0  0  0  0  0  0  0  0  0  0
    2.3358   -3.4934    0.9856 H   0  0  0  0  0  0  0  0  0  0  0  0
    3.1478   -0.4380    2.1726 H   0  0  0  0  0  0  0  0  0  0  0  0
    5.0965    0.7653    1.2670 H   0  0  0  0  0  0  0  0  0  0  0  0
    3.7382   -0.0562   -2.7379 H   0  0  0  0  0  0  0  0  0  0  0  0
    1.8047   -1.2373   -1.8469 H   0  0  0  0  0  0  0  0  0  0  0  0
    6.3586    2.5934   -2.4236 H   0  0  0  0  0  0  0  0  0  0  0  0
    4.7199    2.0779   -2.7784 H   0  0  0  0  0  0  0  0  0  0  0  0
    5.1746    1.6296   -5.1549 H   0  0  0  0  0  0  0  0  0  0  0  0
    6.1655    0.1536   -6.8668 H   0  0  0  0  0  0  0  0  0  0  0  0
    7.8716   -1.5300   -6.2292 H   0  0  0  0  0  0  0  0  0  0  0  0
    8.5924   -1.7284   -3.8635 H   0  0  0  0  0  0  0  0  0  0  0  0
    7.6129   -0.2613   -2.1374 H   0  0  0  0  0  0  0  0  0  0  0  0
   -5.7138    0.0911    2.7918 H   0  0  0  0  0  0  0  0  0  0  0  0
   -4.4845   -1.1097    3.1766 H   0  0  0  0  0  0  0  0  0  0  0  0
   -6.4670   -2.1349    2.0079 H   0  0  0  0  0  0  0  0  0  0  0  0
   -5.0222   -2.3292    1.0048 H   0  0  0  0  0  0  0  0  0  0  0  0
   -6.0145    0.3551   -1.2108 H   0  0  0  0  0  0  0  0  0  0  0  0
   -4.7436   -0.8381   -0.8979 H   0  0  0  0  0  0  0  0  0  0  0  0
   -5.4511    1.5890    0.8719 H   0  0  0  0  0  0  0  0  0  0  0  0
   -4.0361    1.4806   -0.1745 H   0  0  0  0  0  0  0  0  0  0  0  0
  1  2  2  0
  2  3  1  0
  3  4  1  0
  4  5  2  0
  4  6  1  0
  6  7  2  0
  7  8  1  0
  8  9  2  0
  9 10  1  0
 10 11  2  0
 11 12  1  0
 12 13  2  0
 13 14  1  0
 14 15  2  0
 15 16  1  0
 16 17  2  0
 15 18  1  0
 18 19  1  0
 19 20  1  0
 20 21  2  0
 21 22  1  0
 22 23  2  0
 23 24  1  0
 24 25  2  0
  2 26  1  0
 26 27  1  0
 27 28  1  0
 28 29  1  0
 29 30  1  0
 30 31  1  0
  7  1  1  0
 17 12  1  0
 25 20  1  0
 31 26  1  0
 11  6  1  0
  3 32  1  0
  9 33  1  0
 10 34  1  0
 13 35  1  0
 14 36  1  0
 16 37  1  0
 17 38  1  0
 19 39  1  0
 19 40  1  0
 21 41  1  0
 22 42  1  0
 23 43  1  0
 24 44  1  0
 25 45  1  0
 27 46  1  0
 27 47  1  0
 28 48  1  0
 28 49  1  0
 30 50  1  0
 30 51  1  0
 31 52  1  0
 31 53  1  0
M  END
>  <mol_id>  (30) 
MCULE-1210523155

>  <drugclip_rank>  (30) 
30

>  <conformer>  (30) 
2

>  <align_rmsd>  (30) 
0.607

$$$$
MCULE-6276722714
     RDKit          3D

 48 51  0  0  0  0  0  0  0  0999 V2000
   -2.3802   -1.2814    2.2619 N   0  0  0  0  0  0  0  0  0  0  0  0
   -2.7045   -0.0875    1.8826 C   0  0  0  0  0  0  0  0  0  0  0  0
   -1.7902    0.7045    1.2421 N   0  0  0  0  0  0  0  0  0  0  0  0
   -0.4903    0.3515    0.9809 C   0  0  0  0  0  0  0  0  0  0  0  0
    0.2790    1.1629    0.4820 O   0  0  0  0  0  0  0  0  0  0  0  0
   -0.1117   -1.0227    1.3510 C   0  0  0  0  0  0  0  0  0  0  0  0
   -1.0985   -1.7661    1.9883 C   0  0  0  0  0  0  0  0  0  0  0  0
   -0.9112   -3.0394    2.4058 N   0  0  0  0  0  0  0  0  0  0  0  0
    0.2965   -3.5902    2.1867 C   0  0  0  0  0  0  0  0  0  0  0  0
    1.3368   -2.9267    1.5611 C   0  0  0  0  0  0  0  0  0  0  0  0
    1.1458   -1.6072    1.1227 C   0  0  0  0  0  0  0  0  0  0  0  0
    2.2640   -0.9328    0.4533 C   0  0  0  0  0  0  0  0  0  0  0  0
    3.3174   -0.3834    1.1964 C   0  0  0  0  0  0  0  0  0  0  0  0
    4.3976    0.2288    0.5541 C   0  0  0  0  0  0  0  0  0  0  0  0
    4.4485    0.3055   -0.8388 C   0  0  0  0  0  0  0  0  0  0  0  0
    3.4079   -0.2414   -1.5879 C   0  0  0  0  0  0  0  0  0  0  0  0
    2.3260   -0.8575   -0.9460 C   0  0  0  0  0  0  0  0  0  0  0  0
    5.5595    0.9285   -1.3366 O   0  0  0  0  0  0  0  0  0  0  0  0
    5.6209    1.1106   -2.7499 C   0  0  0  0  0  0  0  0  0  0  0  0
    6.9001    1.8632   -3.0696 C   0  0  0  0  0  0  0  0  0  0  0  0
   -3.9579    0.4517    2.1211 N   0  0  0  0  0  0  0  0  0  0  0  0
   -4.8940   -0.2959    2.9821 C   0  0  0  0  0  0  0  0  0  0  0  0
   -5.7287   -1.2606    2.1397 C   0  0  0  0  0  0  0  0  0  0  0  0
   -6.4484   -0.5233    1.0102 C   0  0  0  0  0  0  0  0  0  0  0  0
   -5.4761    0.3343    0.1997 C   0  0  0  0  0  0  0  0  0  0  0  0
   -4.6615    1.2535    1.1106 C   0  0  0  0  0  0  0  0  0  0  0  0
   -2.0153    1.6672    1.0558 H   0  0  0  0  0  0  0  0  0  0  0  0
    0.4110   -4.6122    2.5367 H   0  0  0  0  0  0  0  0  0  0  0  0
    2.2865   -3.4333    1.4123 H   0  0  0  0  0  0  0  0  0  0  0  0
    3.3024   -0.4208    2.2833 H   0  0  0  0  0  0  0  0  0  0  0  0
    5.2032    0.6557    1.1461 H   0  0  0  0  0  0  0  0  0  0  0  0
    3.4018   -0.2057   -2.6717 H   0  0  0  0  0  0  0  0  0  0  0  0
    1.5233   -1.2741   -1.5508 H   0  0  0  0  0  0  0  0  0  0  0  0
    5.6419    0.1391   -3.2569 H   0  0  0  0  0  0  0  0  0  0  0  0
    4.7636    1.6989   -3.0971 H   0  0  0  0  0  0  0  0  0  0  0  0
    6.9146    2.8325   -2.5602 H   0  0  0  0  0  0  0  0  0  0  0  0
    7.7741    1.3051   -2.7177 H   0  0  0  0  0  0  0  0  0  0  0  0
    6.9965    2.0285   -4.1463 H   0  0  0  0  0  0  0  0  0  0  0  0
   -4.3651   -0.8355    3.7763 H   0  0  0  0  0  0  0  0  0  0  0  0
   -5.5547    0.4177    3.4906 H   0  0  0  0  0  0  0  0  0  0  0  0
   -5.0832   -2.0355    1.7089 H   0  0  0  0  0  0  0  0  0  0  0  0
   -6.4618   -1.7697    2.7751 H   0  0  0  0  0  0  0  0  0  0  0  0
   -7.2293    0.1187    1.4363 H   0  0  0  0  0  0  0  0  0  0  0  0
   -6.9484   -1.2435    0.3532 H   0  0  0  0  0  0  0  0  0  0  0  0
   -4.8000   -0.3200   -0.3646 H   0  0  0  0  0  0  0  0  0  0  0  0
   -6.0322    0.9325   -0.5305 H   0  0  0  0  0  0  0  0  0  0  0  0
   -3.9770    1.8559    0.5060 H   0  0  0  0  0  0  0  0  0  0  0  0
   -5.3277    1.9641    1.6157 H   0  0  0  0  0  0  0  0  0  0  0  0
  1  2  2  0
  2  3  1  0
  3  4  1  0
  4  5  2  0
  4  6  1  0
  6  7  2  0
  7  8  1  0
  8  9  2  0
  9 10  1  0
 10 11  2  0
 11 12  1  0
 12 13  2  0
 13 14  1  0
 14 15  2  0
 15 16  1  0
 16 17  2  0
 15 18  1  0
 18 19  1  0
 19 20  1  0
  2 21  1  0
 21 22  1  0
 22 23  1  0
 23 24  1  0
 24 25  1  0
 25 26  1  0
  7  1  1  0
 17 12  1  0
 26 21  1  0
 11  6  1  0
  3 27  1  0
  9 28  1  0
 10 29  1  0
 13 30  1  0
 14 31  1  0
 16 32  1  0
 17 33  1  0
 19 34  1  0
 19 35  1  0
 20 36  1  0
 20 37  1  0
 20 38  1  0
 22 39  1  0
 22 40  1  0
 23 41  1  0
 23 42  1  0
 24 43  1  0
 24 44  1  0
 25 45  1  0
 25 46  1  0
 26 47  1  0
 26 48  1  0
M  END
>  <mol_id>  (31) 
MCULE-6276722714

>  <drugclip_rank>  (31) 
31

>  <conformer>  (31) 
3

>  <align_rmsd>  (31) 
0.591

$$$$
Z225700796
     RDKit          3D

 44 45  0  0  0  0  0  0  0  0999 V2000
   -9.6880    1.8842    2.4207 C   0  0  0  0  0  0  0  0  0  0  0  0
   -8.2194    2.2890    2.3674 C   0  0  0  0  0  0  0  0  0  0  0  0
   -7.9565    3.5914    1.6077 C   0  0  0  0  0  0  0  0  0  0  0  0
   -8.4263    3.5132   -0.1480 S   0  0  0  0  0  0  0  0  0  0  0  0
   -7.1567    2.4876   -0.7924 C   0  0  0  0  0  0  0  0  0  0  0  0
   -7.3891    1.8077   -1.9168 N   0  0  0  0  0  0  0  0  0  0  0  0
   -5.9852    0.9710   -2.2553 S   0  0  0  0  0  0  0  0  0  0  0  0
   -5.1795    1.5857   -0.8807 C   0  0  0  0  0  0  0  0  0  0  0  0
   -5.9210    2.3935   -0.1753 N   0  0  0  0  0  0  0  0  0  0  0  0
   -3.8804    1.1951   -0.7187 N   0  0  0  0  0  0  0  0  0  0  0  0
   -3.1280    1.5740    0.3722 C   0  0  0  0  0  0  0  0  0  0  0  0
   -3.5354    2.1881    1.3536 O   0  0  0  0  0  0  0  0  0  0  0  0
   -1.6558    1.2223    0.2381 C   0  0  0  0  0  0  0  0  0  0  0  0
   -1.4340   -0.5208   -0.2285 S   0  0  0  0  0  0  0  0  0  0  0  0
    0.3370   -0.5646   -0.2475 C   0  0  0  0  0  0  0  0  0  0  0  0
    0.9883    0.5205   -0.6930 N   0  0  0  0  0  0  0  0  0  0  0  0
    2.3343    0.4384   -0.7061 C   0  0  0  0  0  0  0  0  0  0  0  0
    3.0371   -0.6828   -0.3179 C   0  0  0  0  0  0  0  0  0  0  0  0
    2.2720   -1.7511    0.1149 C   0  0  0  0  0  0  0  0  0  0  0  0
    0.9260   -1.7016    0.1516 N   0  0  0  0  0  0  0  0  0  0  0  0
    2.8171   -2.9260    0.6275 N   0  0  0  0  0  0  0  0  0  0  0  0
    4.5037   -0.6497   -0.4219 C   0  0  0  0  0  0  0  0  0  0  0  0
    5.1370    0.3922   -0.4411 O   0  0  0  0  0  0  0  0  0  0  0  0
    5.0173   -1.8924   -0.5997 O   0  0  0  0  0  0  0  0  0  0  0  0
    6.4394   -1.9188   -0.7624 C   0  0  0  0  0  0  0  0  0  0  0  0
    6.8515   -3.3346   -1.1066 C   0  0  0  0  0  0  0  0  0  0  0  0
   -9.8078    0.9919    3.0463 H   0  0  0  0  0  0  0  0  0  0  0  0
  -10.3023    2.6842    2.8468 H   0  0  0  0  0  0  0  0  0  0  0  0
  -10.0817    1.6383    1.4305 H   0  0  0  0  0  0  0  0  0  0  0  0
   -7.8776    2.4149    3.4019 H   0  0  0  0  0  0  0  0  0  0  0  0
   -7.6288    1.4649    1.9503 H   0  0  0  0  0  0  0  0  0  0  0  0
   -8.5440    4.3967    2.0607 H   0  0  0  0  0  0  0  0  0  0  0  0
   -6.9065    3.8892    1.6940 H   0  0  0  0  0  0  0  0  0  0  0  0
   -3.4793    0.5872   -1.4186 H   0  0  0  0  0  0  0  0  0  0  0  0
   -1.2295    1.8916   -0.5160 H   0  0  0  0  0  0  0  0  0  0  0  0
   -1.1614    1.4062    1.1955 H   0  0  0  0  0  0  0  0  0  0  0  0
    2.8439    1.3274   -1.0676 H   0  0  0  0  0  0  0  0  0  0  0  0
    2.0692   -3.5923    0.8012 H   0  0  0  0  0  0  0  0  0  0  0  0
    3.5658   -3.2947    0.0462 H   0  0  0  0  0  0  0  0  0  0  0  0
    6.9140   -1.6068    0.1709 H   0  0  0  0  0  0  0  0  0  0  0  0
    6.7390   -1.2466   -1.5714 H   0  0  0  0  0  0  0  0  0  0  0  0
    6.5259   -4.0339   -0.3265 H   0  0  0  0  0  0  0  0  0  0  0  0
    7.9407   -3.4074   -1.2236 H   0  0  0  0  0  0  0  0  0  0  0  0
    6.3782   -3.6545   -2.0435 H   0  0  0  0  0  0  0  0  0  0  0  0
  1  2  1  0
  2  3  1  0
  3  4  1  0
  4  5  1  0
  5  6  2  0
  6  7  1  0
  7  8  1  0
  8  9  2  0
  8 10  1  0
 10 11  1  0
 11 12  2  0
 11 13  1  0
 13 14  1  0
 14 15  1  0
 15 16  2  0
 16 17  1  0
 17 18  2  0
 18 19  1  0
 19 20  2  0
 19 21  1  0
 18 22  1  0
 22 23  2  0
 22 24  1  0
 24 25  1  0
 25 26  1  0
  9  5  1  0
 20 15  1  0
  1 27  1  0
  1 28  1  0
  1 29  1  0
  2 30  1  0
  2 31  1  0
  3 32  1  0
  3 33  1  0
 10 34  1  0
 13 35  1  0
 13 36  1  0
 17 37  1  0
 21 38  1  0
 21 39  1  0
 25 40  1  0
 25 41  1  0
 26 42  1  0
 26 43  1  0
 26 44  1  0
M  END
>  <mol_id>  (32) 
Z225700796

>  <drugclip_rank>  (32) 
32

>  <conformer>  (32) 
12

>  <align_rmsd>  (32) 
1.012

$$$$
STK743878
     RDKit          3D

 48 49  0  0  0  0  0  0  0  0999 V2000
    6.0179   -4.0231   -1.5663 C   0  0  0  0  0  0  0  0  0  0  0  0
    5.9701   -2.5685   -1.1415 C   0  0  0  0  0  0  0  0  0  0  0  0
    4.6000   -2.2247   -0.8865 O   0  0  0  0  0  0  0  0  0  0  0  0
    4.4117   -0.9391   -0.4977 C   0  0  0  0  0  0  0  0  0  0  0  0
    5.2875   -0.0995   -0.3627 O   0  0  0  0  0  0  0  0  0  0  0  0
    2.9837   -0.6465   -0.2929 C   0  0  0  0  0  0  0  0  0  0  0  0
    2.5876    0.6750   -0.3130 C   0  0  0  0  0  0  0  0  0  0  0  0
    1.3118    1.0799   -0.1474 N   0  0  0  0  0  0  0  0  0  0  0  0
    0.4086    0.1139    0.0612 C   0  0  0  0  0  0  0  0  0  0  0  0
    0.6932   -1.1960    0.1022 N   0  0  0  0  0  0  0  0  0  0  0  0
    1.9733   -1.5721   -0.0782 C   0  0  0  0  0  0  0  0  0  0  0  0
    2.1996   -2.9494    0.0538 N   0  0  0  0  0  0  0  0  0  0  0  0
   -1.2741    0.6266    0.2735 S   0  0  0  0  0  0  0  0  0  0  0  0
   -1.9131   -0.8338    1.1529 C   0  0  0  0  0  0  0  0  0  0  0  0
   -3.3559   -0.6170    1.5833 C   0  0  0  0  0  0  0  0  0  0  0  0
   -3.6936   -0.8047    2.7493 O   0  0  0  0  0  0  0  0  0  0  0  0
   -4.1962   -0.2752    0.5350 N   0  0  0  0  0  0  0  0  0  0  0  0
   -5.5866   -0.0561    0.5756 C   0  0  0  0  0  0  0  0  0  0  0  0
   -6.2073    0.3273   -0.6201 C   0  0  0  0  0  0  0  0  0  0  0  0
   -7.5864    0.5603   -0.6669 C   0  0  0  0  0  0  0  0  0  0  0  0
   -6.3682   -0.2025    1.7231 C   0  0  0  0  0  0  0  0  0  0  0  0
   -7.7495    0.0321    1.6812 C   0  0  0  0  0  0  0  0  0  0  0  0
   -8.3670    0.4150    0.4853 C   0  0  0  0  0  0  0  0  0  0  0  0
   -9.8291    0.6725    0.3837 C   0  0  0  0  0  0  0  0  0  0  0  0
  -10.3919    0.9539   -0.6626 O   0  0  0  0  0  0  0  0  0  0  0  0
  -10.4221    0.5535    1.5973 O   0  0  0  0  0  0  0  0  0  0  0  0
  -11.8350    0.7891    1.5862 C   0  0  0  0  0  0  0  0  0  0  0  0
  -12.3431    0.6848    3.0108 C   0  0  0  0  0  0  0  0  0  0  0  0
    7.0455   -4.3370   -1.7702 H   0  0  0  0  0  0  0  0  0  0  0  0
    5.5990   -4.6670   -0.7859 H   0  0  0  0  0  0  0  0  0  0  0  0
    5.4146   -4.1809   -2.4667 H   0  0  0  0  0  0  0  0  0  0  0  0
    6.5615   -2.4276   -0.2301 H   0  0  0  0  0  0  0  0  0  0  0  0
    6.3668   -1.9349   -1.9424 H   0  0  0  0  0  0  0  0  0  0  0  0
    3.3019    1.4807   -0.4712 H   0  0  0  0  0  0  0  0  0  0  0  0
    2.7375   -3.1333    0.8970 H   0  0  0  0  0  0  0  0  0  0  0  0
    2.7716   -3.2786   -0.7244 H   0  0  0  0  0  0  0  0  0  0  0  0
   -1.8790   -1.7204    0.5108 H   0  0  0  0  0  0  0  0  0  0  0  0
   -1.3109   -1.0157    2.0491 H   0  0  0  0  0  0  0  0  0  0  0  0
   -3.7382   -0.0976   -0.3525 H   0  0  0  0  0  0  0  0  0  0  0  0
   -5.6308    0.4502   -1.5339 H   0  0  0  0  0  0  0  0  0  0  0  0
   -8.0473    0.8558   -1.6080 H   0  0  0  0  0  0  0  0  0  0  0  0
   -5.9360   -0.4984    2.6747 H   0  0  0  0  0  0  0  0  0  0  0  0
   -8.3255   -0.0917    2.5953 H   0  0  0  0  0  0  0  0  0  0  0  0
  -12.0438    1.7897    1.1920 H   0  0  0  0  0  0  0  0  0  0  0  0
  -12.3275    0.0362    0.9610 H   0  0  0  0  0  0  0  0  0  0  0  0
  -12.1169   -0.3009    3.4306 H   0  0  0  0  0  0  0  0  0  0  0  0
  -13.4234    0.8474    3.0521 H   0  0  0  0  0  0  0  0  0  0  0  0
  -11.8495    1.4236    3.6510 H   0  0  0  0  0  0  0  0  0  0  0  0
  1  2  1  0
  2  3  1  0
  3  4  1  0
  4  5  2  0
  4  6  1  0
  6  7  2  0
  7  8  1  0
  8  9  2  0
  9 10  1  0
 10 11  2  0
 11 12  1  0
  9 13  1  0
 13 14  1  0
 14 15  1  0
 15 16  2  0
 15 17  1  0
 17 18  1  0
 18 19  2  0
 19 20  1  0
 18 21  1  0
 21 22  2  0
 22 23  1  0
 23 24  1  0
 24 25  2  0
 24 26  1  0
 26 27  1  0
 27 28  1  0
 11  6  1  0
 23 20  2  0
  1 29  1  0
  1 30  1  0
  1 31  1  0
  2 32  1  0
  2 33  1  0
  7 34  1  0
 12 35  1  0
 12 36  1  0
 14 37  1  0
 14 38  1  0
 17 39  1  0
 19 40  1  0
 20 41  1  0
 21 42  1  0
 22 43  1  0
 27 44  1  0
 27 45  1  0
 28 46  1  0
 28 47  1  0
 28 48  1  0
M  END
>  <mol_id>  (33) 
STK743878

>  <drugclip_rank>  (33) 
33

>  <conformer>  (33) 
39

>  <align_rmsd>  (33) 
0.689

$$$$
STL354769
     RDKit          3D

 45 46  0  0  0  0  0  0  0  0999 V2000
    7.3506    0.8465   -0.9517 C   0  0  0  0  0  0  0  0  0  0  0  0
    6.5556   -0.4430   -0.8876 C   0  0  0  0  0  0  0  0  0  0  0  0
    5.1886   -0.1109   -0.6055 O   0  0  0  0  0  0  0  0  0  0  0  0
    4.3539   -1.1771   -0.5365 C   0  0  0  0  0  0  0  0  0  0  0  0
    4.6775   -2.3442   -0.6880 O   0  0  0  0  0  0  0  0  0  0  0  0
    2.9738   -0.7403   -0.2500 C   0  0  0  0  0  0  0  0  0  0  0  0
    2.6194    0.5922   -0.1976 C   0  0  0  0  0  0  0  0  0  0  0  0
    1.3657    1.0279    0.0439 N   0  0  0  0  0  0  0  0  0  0  0  0
    0.4373    0.0823    0.2421 C   0  0  0  0  0  0  0  0  0  0  0  0
    0.6795   -1.2342    0.2072 N   0  0  0  0  0  0  0  0  0  0  0  0
    1.9387   -1.6414   -0.0412 C   0  0  0  0  0  0  0  0  0  0  0  0
    2.1239   -3.0317   -0.0194 N   0  0  0  0  0  0  0  0  0  0  0  0
   -1.2137    0.6496    0.5506 S   0  0  0  0  0  0  0  0  0  0  0  0
   -2.0521   -0.9510    0.7938 C   0  0  0  0  0  0  0  0  0  0  0  0
   -3.5430   -0.7816    1.0603 C   0  0  0  0  0  0  0  0  0  0  0  0
   -4.1210   -1.5394    1.8361 O   0  0  0  0  0  0  0  0  0  0  0  0
   -4.1437    0.2107    0.3037 N   0  0  0  0  0  0  0  0  0  0  0  0
   -5.5053    0.5629    0.2534 C   0  0  0  0  0  0  0  0  0  0  0  0
   -6.5168   -0.1247    0.9250 C   0  0  0  0  0  0  0  0  0  0  0  0
   -7.8512    0.2871    0.8141 C   0  0  0  0  0  0  0  0  0  0  0  0
   -5.8484    1.6683   -0.5354 C   0  0  0  0  0  0  0  0  0  0  0  0
   -7.1806    2.0842   -0.6474 C   0  0  0  0  0  0  0  0  0  0  0  0
   -8.1920    1.3939    0.0291 C   0  0  0  0  0  0  0  0  0  0  0  0
   -9.6255    1.7861   -0.0557 C   0  0  0  0  0  0  0  0  0  0  0  0
  -10.5300    1.1611    0.4751 O   0  0  0  0  0  0  0  0  0  0  0  0
   -9.7688    2.9164   -0.7927 O   0  0  0  0  0  0  0  0  0  0  0  0
  -11.1208    3.3600   -0.9143 C   0  0  0  0  0  0  0  0  0  0  0  0
    8.4023    0.6455   -1.1733 H   0  0  0  0  0  0  0  0  0  0  0  0
    6.9468    1.5106   -1.7228 H   0  0  0  0  0  0  0  0  0  0  0  0
    7.2871    1.3864   -0.0013 H   0  0  0  0  0  0  0  0  0  0  0  0
    6.6177   -0.9651   -1.8488 H   0  0  0  0  0  0  0  0  0  0  0  0
    6.9505   -1.0840   -0.0917 H   0  0  0  0  0  0  0  0  0  0  0  0
    3.3411    1.3892   -0.3549 H   0  0  0  0  0  0  0  0  0  0  0  0
    2.7393   -3.2833    0.7523 H   0  0  0  0  0  0  0  0  0  0  0  0
    2.6365   -3.3237   -0.8531 H   0  0  0  0  0  0  0  0  0  0  0  0
   -1.6091   -1.4578    1.6577 H   0  0  0  0  0  0  0  0  0  0  0  0
   -1.9449   -1.5798   -0.0959 H   0  0  0  0  0  0  0  0  0  0  0  0
   -3.5042    0.7963   -0.2239 H   0  0  0  0  0  0  0  0  0  0  0  0
   -6.3056   -0.9918    1.5435 H   0  0  0  0  0  0  0  0  0  0  0  0
   -8.6222   -0.2675    1.3470 H   0  0  0  0  0  0  0  0  0  0  0  0
   -5.0852    2.2247   -1.0741 H   0  0  0  0  0  0  0  0  0  0  0  0
   -7.4109    2.9471   -1.2673 H   0  0  0  0  0  0  0  0  0  0  0  0
  -11.7147    2.6242   -1.4659 H   0  0  0  0  0  0  0  0  0  0  0  0
  -11.1193    4.2963   -1.4790 H   0  0  0  0  0  0  0  0  0  0  0  0
  -11.5560    3.5513    0.0715 H   0  0  0  0  0  0  0  0  0  0  0  0
  1  2  1  0
  2  3  1  0
  3  4  1  0
  4  5  2  0
  4  6  1  0
  6  7  2  0
  7  8  1  0
  8  9  2  0
  9 10  1  0
 10 11  2  0
 11 12  1  0
  9 13  1  0
 13 14  1  0
 14 15  1  0
 15 16  2  0
 15 17  1  0
 17 18  1  0
 18 19  2  0
 19 20  1  0
 18 21  1  0
 21 22  2  0
 22 23  1  0
 23 24  1  0
 24 25  2  0
 24 26  1  0
 26 27  1  0
 11  6  1  0
 23 20  2  0
  1 28  1  0
  1 29  1  0
  1 30  1  0
  2 31  1  0
  2 32  1  0
  7 33  1  0
 12 34  1  0
 12 35  1  0
 14 36  1  0
 14 37  1  0
 17 38  1  0
 19 39  1  0
 20 40  1  0
 21 41  1  0
 22 42  1  0
 27 43  1  0
 27 44  1  0
 27 45  1  0
M  END
>  <mol_id>  (34) 
STL354769

>  <drugclip_rank>  (34) 
34

>  <conformer>  (34) 
31

>  <align_rmsd>  (34) 
0.839

$$$$
Z1770253642
     RDKit          3D

 52 55  0  0  0  0  0  0  0  0999 V2000
    7.0300   -1.2392   -3.2225 C   0  0  0  0  0  0  0  0  0  0  0  0
    7.1185   -1.0427   -1.7209 C   0  0  0  0  0  0  0  0  0  0  0  0
    6.0281   -0.2286   -1.2653 O   0  0  0  0  0  0  0  0  0  0  0  0
    4.8714   -0.8862   -0.9644 C   0  0  0  0  0  0  0  0  0  0  0  0
    4.7228   -2.0984   -1.0733 O   0  0  0  0  0  0  0  0  0  0  0  0
    3.8165    0.0013   -0.5111 C   0  0  0  0  0  0  0  0  0  0  0  0
    3.7969    1.3868   -0.5785 C   0  0  0  0  0  0  0  0  0  0  0  0
    2.6233    1.8709   -0.0856 O   0  0  0  0  0  0  0  0  0  0  0  0
    4.7457    2.4095   -1.0737 C   0  0  0  0  0  0  0  0  0  0  0  0
    2.5654   -0.3687    0.0807 C   0  0  0  0  0  0  0  0  0  0  0  0
    1.8726    0.8077    0.3080 C   0  0  0  0  0  0  0  0  0  0  0  0
    1.9146   -1.5426    0.4665 C   0  0  0  0  0  0  0  0  0  0  0  0
    2.4655   -2.8072    0.3641 N   0  0  0  0  0  0  0  0  0  0  0  0
    0.6753   -1.4549    0.9838 N   0  0  0  0  0  0  0  0  0  0  0  0
    0.0969   -0.2401    1.1415 C   0  0  0  0  0  0  0  0  0  0  0  0
    0.6512    0.9466    0.8325 N   0  0  0  0  0  0  0  0  0  0  0  0
   -1.3176   -0.2107    1.7156 C   0  0  0  0  0  0  0  0  0  0  0  0
   -2.4106   -0.3185    0.7193 N   0  0  0  0  0  0  0  0  0  0  0  0
   -3.7218   -0.4788    1.3687 C   0  0  0  0  0  0  0  0  0  0  0  0
   -4.4977    0.8310    1.4988 C   0  0  0  0  0  0  0  0  0  0  0  0
   -4.7703    1.4594    0.1204 C   0  0  0  0  0  0  0  0  0  0  0  0
   -3.7262    1.0200   -0.9198 C   0  0  0  0  0  0  0  0  0  0  0  0
   -2.3718    0.7841   -0.2546 C   0  0  0  0  0  0  0  0  0  0  0  0
   -6.1620    1.1878   -0.3660 C   0  0  0  0  0  0  0  0  0  0  0  0
   -7.0796    2.0709   -0.8957 C   0  0  0  0  0  0  0  0  0  0  0  0
   -8.1830    1.3169   -1.1824 N   0  0  0  0  0  0  0  0  0  0  0  0
   -7.9059    0.0293   -0.8247 C   0  0  0  0  0  0  0  0  0  0  0  0
   -6.6958   -0.0802   -0.3283 N   0  0  0  0  0  0  0  0  0  0  0  0
    6.1150   -1.7735   -3.4967 H   0  0  0  0  0  0  0  0  0  0  0  0
    7.8896   -1.8065   -3.5905 H   0  0  0  0  0  0  0  0  0  0  0  0
    7.0006   -0.2718   -3.7353 H   0  0  0  0  0  0  0  0  0  0  0  0
    7.1518   -2.0003   -1.1895 H   0  0  0  0  0  0  0  0  0  0  0  0
    8.0409   -0.5068   -1.4753 H   0  0  0  0  0  0  0  0  0  0  0  0
    5.6442    2.4312   -0.4498 H   0  0  0  0  0  0  0  0  0  0  0  0
    5.0407    2.1936   -2.1054 H   0  0  0  0  0  0  0  0  0  0  0  0
    4.2986    3.4086   -1.0565 H   0  0  0  0  0  0  0  0  0  0  0  0
    3.2298   -2.9145   -0.3008 H   0  0  0  0  0  0  0  0  0  0  0  0
    1.7625   -3.5356    0.3826 H   0  0  0  0  0  0  0  0  0  0  0  0
   -1.4340    0.7005    2.3166 H   0  0  0  0  0  0  0  0  0  0  0  0
   -1.3839   -1.0556    2.4135 H   0  0  0  0  0  0  0  0  0  0  0  0
   -4.3089   -1.1884    0.7719 H   0  0  0  0  0  0  0  0  0  0  0  0
   -3.6244   -0.9480    2.3557 H   0  0  0  0  0  0  0  0  0  0  0  0
   -5.4277    0.6627    2.0557 H   0  0  0  0  0  0  0  0  0  0  0  0
   -3.9059    1.5326    2.1028 H   0  0  0  0  0  0  0  0  0  0  0  0
   -4.6805    2.5478    0.2500 H   0  0  0  0  0  0  0  0  0  0  0  0
   -3.6325    1.7910   -1.6947 H   0  0  0  0  0  0  0  0  0  0  0  0
   -4.0413    0.1044   -1.4389 H   0  0  0  0  0  0  0  0  0  0  0  0
   -2.0604    1.7235    0.2220 H   0  0  0  0  0  0  0  0  0  0  0  0
   -1.6334    0.5513   -1.0304 H   0  0  0  0  0  0  0  0  0  0  0  0
   -7.0402    3.1331   -1.0877 H   0  0  0  0  0  0  0  0  0  0  0  0
   -9.0486    1.6457   -1.5869 H   0  0  0  0  0  0  0  0  0  0  0  0
   -8.6164   -0.7768   -0.9493 H   0  0  0  0  0  0  0  0  0  0  0  0
  1  2  1  0
  2  3  1  0
  3  4  1  0
  4  5  2  0
  4  6  1  0
  6  7  2  0
  7  8  1  0
  7  9  1  0
  6 10  1  0
 10 11  2  0
 10 12  1  0
 12 13  1  0
 12 14  2  0
 14 15  1  0
 15 16  2  0
 15 17  1  0
 17 18  1  0
 18 19  1  0
 19 20  1  0
 20 21  1  0
 21 22  1  0
 22 23  1  0
 21 24  1  0
 24 25  2  0
 25 26  1  0
 26 27  1  0
 27 28  2  0
 11  8  1  0
 16 11  1  0
 23 18  1  0
 28 24  1  0
  1 29  1  0
  1 30  1  0
  1 31  1  0
  2 32  1  0
  2 33  1  0
  9 34  1  0
  9 35  1  0
  9 36  1  0
 13 37  1  0
 13 38  1  0
 17 39  1  0
 17 40  1  0
 19 41  1  0
 19 42  1  0
 20 43  1  0
 20 44  1  0
 21 45  1  0
 22 46  1  0
 22 47  1  0
 23 48  1  0
 23 49  1  0
 25 50  1  0
 26 51  1  0
 27 52  1  0
M  END
>  <mol_id>  (35) 
Z1770253642

>  <drugclip_rank>  (35) 
35

>  <conformer>  (35) 
36

>  <align_rmsd>  (35) 
0.824

$$$$
Z52660414
     RDKit          3D

 54 57  0  0  0  0  0  0  0  0999 V2000
    8.3967   -0.0518   -1.9567 C   0  0  0  0  0  0  0  0  0  0  0  0
    7.2178   -0.9609   -1.6684 C   0  0  0  0  0  0  0  0  0  0  0  0
    6.1183   -0.1437   -1.2479 O   0  0  0  0  0  0  0  0  0  0  0  0
    4.9872   -0.8348   -0.9267 C   0  0  0  0  0  0  0  0  0  0  0  0
    4.8912   -2.0556   -0.9923 O   0  0  0  0  0  0  0  0  0  0  0  0
    3.8946    0.0248   -0.5101 C   0  0  0  0  0  0  0  0  0  0  0  0
    3.8325    1.4083   -0.5993 C   0  0  0  0  0  0  0  0  0  0  0  0
    2.6314    1.8609   -0.1448 O   0  0  0  0  0  0  0  0  0  0  0  0
    4.7611    2.4542   -1.0851 C   0  0  0  0  0  0  0  0  0  0  0  0
    2.6438   -0.3762    0.0622 C   0  0  0  0  0  0  0  0  0  0  0  0
    1.9066    0.7800    0.2494 C   0  0  0  0  0  0  0  0  0  0  0  0
    2.0237   -1.5640    0.4562 C   0  0  0  0  0  0  0  0  0  0  0  0
    2.6182   -2.8110    0.3910 N   0  0  0  0  0  0  0  0  0  0  0  0
    0.7702   -1.5081    0.9439 N   0  0  0  0  0  0  0  0  0  0  0  0
    0.1476   -0.3112    1.0613 C   0  0  0  0  0  0  0  0  0  0  0  0
    0.6676    0.8867    0.7392 N   0  0  0  0  0  0  0  0  0  0  0  0
   -1.2757   -0.3177    1.6113 C   0  0  0  0  0  0  0  0  0  0  0  0
   -2.3253   -0.7071    0.6404 N   0  0  0  0  0  0  0  0  0  0  0  0
   -3.5904   -0.9839    1.3574 C   0  0  0  0  0  0  0  0  0  0  0  0
   -4.8684   -0.7592    0.5170 C   0  0  0  0  0  0  0  0  0  0  0  0
   -4.9492    0.6433    0.0810 N   0  0  0  0  0  0  0  0  0  0  0  0
   -3.6657    1.3232   -0.1715 C   0  0  0  0  0  0  0  0  0  0  0  0
   -2.5274    0.3048   -0.4193 C   0  0  0  0  0  0  0  0  0  0  0  0
   -6.1506    1.2300   -0.2842 C   0  0  0  0  0  0  0  0  0  0  0  0
   -6.2820    2.6242   -0.4043 C   0  0  0  0  0  0  0  0  0  0  0  0
   -7.4916    3.2301   -0.7670 C   0  0  0  0  0  0  0  0  0  0  0  0
   -8.6131    2.4504   -1.0184 C   0  0  0  0  0  0  0  0  0  0  0  0
   -8.5210    1.0693   -0.9021 C   0  0  0  0  0  0  0  0  0  0  0  0
   -7.3065    0.4735   -0.5381 C   0  0  0  0  0  0  0  0  0  0  0  0
    8.6781    0.5076   -1.0586 H   0  0  0  0  0  0  0  0  0  0  0  0
    9.2605   -0.6291   -2.2979 H   0  0  0  0  0  0  0  0  0  0  0  0
    8.1372    0.6862   -2.7233 H   0  0  0  0  0  0  0  0  0  0  0  0
    6.9421   -1.5092   -2.5763 H   0  0  0  0  0  0  0  0  0  0  0  0
    7.4810   -1.6679   -0.8733 H   0  0  0  0  0  0  0  0  0  0  0  0
    5.0597    2.2547   -2.1184 H   0  0  0  0  0  0  0  0  0  0  0  0
    4.2945    3.4436   -1.0579 H   0  0  0  0  0  0  0  0  0  0  0  0
    5.6588    2.4891   -0.4611 H   0  0  0  0  0  0  0  0  0  0  0  0
    1.9440   -3.5653    0.4118 H   0  0  0  0  0  0  0  0  0  0  0  0
    3.4055   -2.9057   -0.2483 H   0  0  0  0  0  0  0  0  0  0  0  0
   -1.4967    0.6666    2.0449 H   0  0  0  0  0  0  0  0  0  0  0  0
   -1.2745   -1.0331    2.4444 H   0  0  0  0  0  0  0  0  0  0  0  0
   -3.6713   -0.3430    2.2468 H   0  0  0  0  0  0  0  0  0  0  0  0
   -3.5703   -2.0215    1.7104 H   0  0  0  0  0  0  0  0  0  0  0  0
   -4.8737   -1.4259   -0.3538 H   0  0  0  0  0  0  0  0  0  0  0  0
   -5.7247   -1.0171    1.1520 H   0  0  0  0  0  0  0  0  0  0  0  0
   -3.4174    1.9588    0.6866 H   0  0  0  0  0  0  0  0  0  0  0  0
   -3.7281    1.9606   -1.0618 H   0  0  0  0  0  0  0  0  0  0  0  0
   -2.7723   -0.2498   -1.3354 H   0  0  0  0  0  0  0  0  0  0  0  0
   -1.6051    0.8458   -0.6558 H   0  0  0  0  0  0  0  0  0  0  0  0
   -5.4400    3.2754   -0.1894 H   0  0  0  0  0  0  0  0  0  0  0  0
   -7.5515    4.3120   -0.8424 H   0  0  0  0  0  0  0  0  0  0  0  0
   -9.5533    2.9157   -1.2990 H   0  0  0  0  0  0  0  0  0  0  0  0
   -9.3910    0.4467   -1.0947 H   0  0  0  0  0  0  0  0  0  0  0  0
   -7.2824   -0.6108   -0.4771 H   0  0  0  0  0  0  0  0  0  0  0  0
  1  2  1  0
  2  3  1  0
  3  4  1  0
  4  5  2  0
  4  6  1  0
  6  7  2  0
  7  8  1  0
  7  9  1  0
  6 10  1  0
 10 11  2  0
 10 12  1  0
 12 13  1  0
 12 14  2  0
 14 15  1  0
 15 16  2  0
 15 17  1  0
 17 18  1  0
 18 19  1  0
 19 20  1  0
 20 21  1  0
 21 22  1  0
 22 23  1  0
 21 24  1  0
 24 25  2  0
 25 26  1  0
 26 27  2  0
 27 28  1  0
 28 29  2  0
 11  8  1  0
 16 11  1  0
 23 18  1  0
 29 24  1  0
  1 30  1  0
  1 31  1  0
  1 32  1  0
  2 33  1  0
  2 34  1  0
  9 35  1  0
  9 36  1  0
  9 37  1  0
 13 38  1  0
 13 39  1  0
 17 40  1  0
 17 41  1  0
 19 42  1  0
 19 43  1  0
 20 44  1  0
 20 45  1  0
 22 46  1  0
 22 47  1  0
 23 48  1  0
 23 49  1  0
 25 50  1  0
 26 51  1  0
 27 52  1  0
 28 53  1  0
 29 54  1  0
M  END
>  <mol_id>  (36) 
Z52660414

>  <drugclip_rank>  (36) 
36

>  <conformer>  (36) 
17

>  <align_rmsd>  (36) 
0.789

$$$$
F813-0016
     RDKit          3D

 47 49  0  0  0  0  0  0  0  0999 V2000
    8.3083    0.2035   -1.2650 C   0  0  0  0  0  0  0  0  0  0  0  0
    7.6986    0.1215    0.0605 N   0  0  0  0  0  0  0  0  0  0  0  0
    8.5873    0.3974    1.1813 C   0  0  0  0  0  0  0  0  0  0  0  0
    6.3702    0.4499    0.1371 C   0  0  0  0  0  0  0  0  0  0  0  0
    5.5053    0.5808    1.6341 S   0  0  0  0  0  0  0  0  0  0  0  0
    5.6226    0.6679   -0.9232 N   0  0  0  0  0  0  0  0  0  0  0  0
    4.3245    0.9513   -0.5678 C   0  0  0  0  0  0  0  0  0  0  0  0
    4.0602    0.9509    0.7948 C   0  0  0  0  0  0  0  0  0  0  0  0
    3.3856    1.2085   -1.5045 N   0  0  0  0  0  0  0  0  0  0  0  0
    2.1769    1.4636   -1.0067 C   0  0  0  0  0  0  0  0  0  0  0  0
    1.8219    1.4948    0.2869 N   0  0  0  0  0  0  0  0  0  0  0  0
    2.7669    1.2255    1.2074 C   0  0  0  0  0  0  0  0  0  0  0  0
    2.2814    1.2574    2.9070 S   0  0  0  0  0  0  0  0  0  0  0  0
    1.6453   -0.4436    3.0423 C   0  0  0  0  0  0  0  0  0  0  0  0
    0.3841   -0.7142    2.2289 C   0  0  0  0  0  0  0  0  0  0  0  0
    0.1752   -1.8463    1.7966 O   0  0  0  0  0  0  0  0  0  0  0  0
   -0.4733    0.3642    2.1202 N   0  0  0  0  0  0  0  0  0  0  0  0
   -1.7342    0.4110    1.4967 C   0  0  0  0  0  0  0  0  0  0  0  0
   -2.3988   -0.7072    0.9921 C   0  0  0  0  0  0  0  0  0  0  0  0
   -3.6561   -0.5734    0.3885 C   0  0  0  0  0  0  0  0  0  0  0  0
   -2.3483    1.6664    1.3951 C   0  0  0  0  0  0  0  0  0  0  0  0
   -3.6045    1.8046    0.7925 C   0  0  0  0  0  0  0  0  0  0  0  0
   -4.2664    0.6818    0.2834 C   0  0  0  0  0  0  0  0  0  0  0  0
   -5.6015    0.7657   -0.3695 C   0  0  0  0  0  0  0  0  0  0  0  0
   -6.2037   -0.2050   -0.7988 O   0  0  0  0  0  0  0  0  0  0  0  0
   -6.0265    2.0531   -0.4181 O   0  0  0  0  0  0  0  0  0  0  0  0
   -7.3058    2.2639   -1.0331 C   0  0  0  0  0  0  0  0  0  0  0  0
   -7.1488    2.4034   -2.5358 C   0  0  0  0  0  0  0  0  0  0  0  0
    7.7193   -0.3405   -2.0126 H   0  0  0  0  0  0  0  0  0  0  0  0
    9.3052   -0.2517   -1.2630 H   0  0  0  0  0  0  0  0  0  0  0  0
    8.4109    1.2476   -1.5827 H   0  0  0  0  0  0  0  0  0  0  0  0
    8.6500    1.4744    1.3753 H   0  0  0  0  0  0  0  0  0  0  0  0
    9.6010    0.0354    0.9750 H   0  0  0  0  0  0  0  0  0  0  0  0
    8.2593   -0.1147    2.0924 H   0  0  0  0  0  0  0  0  0  0  0  0
    1.3911    1.6701   -1.7276 H   0  0  0  0  0  0  0  0  0  0  0  0
    2.4267   -1.1433    2.7271 H   0  0  0  0  0  0  0  0  0  0  0  0
    1.4126   -0.6433    4.0934 H   0  0  0  0  0  0  0  0  0  0  0  0
   -0.0811    1.2555    2.4082 H   0  0  0  0  0  0  0  0  0  0  0  0
   -1.9690   -1.7031    1.0507 H   0  0  0  0  0  0  0  0  0  0  0  0
   -4.1535   -1.4615    0.0006 H   0  0  0  0  0  0  0  0  0  0  0  0
   -1.8571    2.5573    1.7797 H   0  0  0  0  0  0  0  0  0  0  0  0
   -4.0506    2.7940    0.7291 H   0  0  0  0  0  0  0  0  0  0  0  0
   -8.0084    1.4639   -0.7749 H   0  0  0  0  0  0  0  0  0  0  0  0
   -7.7090    3.1937   -0.6182 H   0  0  0  0  0  0  0  0  0  0  0  0
   -6.7546    1.4831   -2.9783 H   0  0  0  0  0  0  0  0  0  0  0  0
   -6.4387    3.2013   -2.7755 H   0  0  0  0  0  0  0  0  0  0  0  0
   -8.1092    2.6325   -3.0065 H   0  0  0  0  0  0  0  0  0  0  0  0
  1  2  1  0
  2  3  1  0
  2  4  1  0
  4  5  1  0
  4  6  2  0
  6  7  1  0
  7  8  2  0
  7  9  1  0
  9 10  2  0
 10 11  1  0
 11 12  2  0
 12 13  1  0
 13 14  1  0
 14 15  1  0
 15 16  2  0
 15 17  1  0
 17 18  1  0
 18 19  2  0
 19 20  1  0
 18 21  1  0
 21 22  2  0
 22 23  1  0
 23 24  1  0
 24 25  2  0
 24 26  1  0
 26 27  1  0
 27 28  1  0
  8  5  1  0
 12  8  1  0
 23 20  2  0
  1 29  1  0
  1 30  1  0
  1 31  1  0
  3 32  1  0
  3 33  1  0
  3 34  1  0
 10 35  1  0
 14 36  1  0
 14 37  1  0
 17 38  1  0
 19 39  1  0
 20 40  1  0
 21 41  1  0
 22 42  1  0
 27 43  1  0
 27 44  1  0
 28 45  1  0
 28 46  1  0
 28 47  1  0
M  END
>  <mol_id>  (37) 
F813-0016

>  <drugclip_rank>  (37) 
37

>  <conformer>  (37) 
37

>  <align_rmsd>  (37) 
1.097

$$$$
STK651130
     RDKit          3D

 57 60  0  0  0  0  0  0  0  0999 V2000
   -1.4843    1.3942    1.0470 C   0  0  0  0  0  0  0  0  0  0  0  0
   -1.3454    1.4941    2.5686 C   0  0  0  0  0  0  0  0  0  0  0  0
   -2.1792    0.4200    3.2715 C   0  0  0  0  0  0  0  0  0  0  0  0
   -1.8756   -0.9764    2.7231 C   0  0  0  0  0  0  0  0  0  0  0  0
   -2.0004   -1.0106    1.1974 C   0  0  0  0  0  0  0  0  0  0  0  0
   -1.1720    0.0366    0.5983 N   0  0  0  0  0  0  0  0  0  0  0  0
    0.1763   -0.2643    0.4238 C   0  0  0  0  0  0  0  0  0  0  0  0
    1.0481    0.7310    0.2622 N   0  0  0  0  0  0  0  0  0  0  0  0
    0.5568   -1.5388    0.3957 N   0  0  0  0  0  0  0  0  0  0  0  0
    1.8530   -1.7998    0.2018 C   0  0  0  0  0  0  0  0  0  0  0  0
    2.0896   -3.1432    0.1770 O   0  0  0  0  0  0  0  0  0  0  0  0
    2.8480   -0.8272    0.0480 C   0  0  0  0  0  0  0  0  0  0  0  0
    2.3321    0.4672    0.0863 C   0  0  0  0  0  0  0  0  0  0  0  0
    4.2681   -0.9811   -0.1278 C   0  0  0  0  0  0  0  0  0  0  0  0
    5.0573    0.1627   -0.2690 C   0  0  0  0  0  0  0  0  0  0  0  0
    4.4383    1.3871   -0.2251 C   0  0  0  0  0  0  0  0  0  0  0  0
    3.1140    1.5384   -0.0508 N   0  0  0  0  0  0  0  0  0  0  0  0
    4.9526   -2.2790   -0.1539 C   0  0  0  0  0  0  0  0  0  0  0  0
    5.2128   -2.9784    1.0312 C   0  0  0  0  0  0  0  0  0  0  0  0
    5.8574   -4.2178    0.9950 C   0  0  0  0  0  0  0  0  0  0  0  0
    6.2560   -4.7829   -0.2182 C   0  0  0  0  0  0  0  0  0  0  0  0
    6.0141   -4.0871   -1.4010 C   0  0  0  0  0  0  0  0  0  0  0  0
    5.3683   -2.8449   -1.3686 C   0  0  0  0  0  0  0  0  0  0  0  0
    6.8772   -5.9934   -0.1014 O   0  0  0  0  0  0  0  0  0  0  0  0
    7.1721   -6.7355   -1.2878 C   0  0  0  0  0  0  0  0  0  0  0  0
    8.5686   -6.3794   -1.8018 C   0  0  0  0  0  0  0  0  0  0  0  0
    9.0045   -7.1043   -3.0866 C   0  0  0  0  0  0  0  0  0  0  0  0
    8.1385   -6.7213   -4.2868 C   0  0  0  0  0  0  0  0  0  0  0  0
    9.0418   -8.6226   -2.9161 C   0  0  0  0  0  0  0  0  0  0  0  0
   -2.5223    1.6191    0.7690 H   0  0  0  0  0  0  0  0  0  0  0  0
   -0.8783    2.1599    0.5486 H   0  0  0  0  0  0  0  0  0  0  0  0
   -0.2934    1.3797    2.8569 H   0  0  0  0  0  0  0  0  0  0  0  0
   -1.6641    2.4870    2.9048 H   0  0  0  0  0  0  0  0  0  0  0  0
   -1.9864    0.4461    4.3498 H   0  0  0  0  0  0  0  0  0  0  0  0
   -3.2447    0.6399    3.1309 H   0  0  0  0  0  0  0  0  0  0  0  0
   -2.5636   -1.7045    3.1670 H   0  0  0  0  0  0  0  0  0  0  0  0
   -0.8617   -1.2686    3.0224 H   0  0  0  0  0  0  0  0  0  0  0  0
   -1.7738   -2.0107    0.8095 H   0  0  0  0  0  0  0  0  0  0  0  0
   -3.0464   -0.8226    0.9218 H   0  0  0  0  0  0  0  0  0  0  0  0
    2.8909   -3.3191   -0.3340 H   0  0  0  0  0  0  0  0  0  0  0  0
    6.1334    0.1005   -0.4000 H   0  0  0  0  0  0  0  0  0  0  0  0
    5.0015    2.3106   -0.3262 H   0  0  0  0  0  0  0  0  0  0  0  0
    4.9116   -2.5681    1.9937 H   0  0  0  0  0  0  0  0  0  0  0  0
    6.0489   -4.7503    1.9244 H   0  0  0  0  0  0  0  0  0  0  0  0
    6.3242   -4.4724   -2.3665 H   0  0  0  0  0  0  0  0  0  0  0  0
    5.1928   -2.3197   -2.3067 H   0  0  0  0  0  0  0  0  0  0  0  0
    7.1566   -7.7896   -0.9901 H   0  0  0  0  0  0  0  0  0  0  0  0
    6.3868   -6.6259   -2.0425 H   0  0  0  0  0  0  0  0  0  0  0  0
    8.6384   -5.2966   -1.9627 H   0  0  0  0  0  0  0  0  0  0  0  0
    9.2943   -6.5907   -1.0050 H   0  0  0  0  0  0  0  0  0  0  0  0
   10.0288   -6.7744   -3.3053 H   0  0  0  0  0  0  0  0  0  0  0  0
    8.0991   -5.6338   -4.4079 H   0  0  0  0  0  0  0  0  0  0  0  0
    8.5528   -7.1441   -5.2086 H   0  0  0  0  0  0  0  0  0  0  0  0
    7.1136   -7.0917   -4.1856 H   0  0  0  0  0  0  0  0  0  0  0  0
    8.0395   -9.0421   -2.7831 H   0  0  0  0  0  0  0  0  0  0  0  0
    9.6489   -8.9027   -2.0489 H   0  0  0  0  0  0  0  0  0  0  0  0
    9.4835   -9.0968   -3.7993 H   0  0  0  0  0  0  0  0  0  0  0  0
  1  2  1  0
  2  3  1  0
  3  4  1  0
  4  5  1  0
  5  6  1  0
  6  7  1  0
  7  8  2  0
  7  9  1  0
  9 10  2  0
 10 11  1  0
 10 12  1  0
 12 13  2  0
 12 14  1  0
 14 15  2  0
 15 16  1  0
 16 17  2  0
 14 18  1  0
 18 19  2  0
 19 20  1  0
 20 21  2  0
 21 22  1  0
 22 23  2  0
 21 24  1  0
 24 25  1  0
 25 26  1  0
 26 27  1  0
 27 28  1  0
 27 29  1  0
  6  1  1  0
 13  8  1  0
 17 13  1  0
 23 18  1  0
  1 30  1  0
  1 31  1  0
  2 32  1  0
  2 33  1  0
  3 34  1  0
  3 35  1  0
  4 36  1  0
  4 37  1  0
  5 38  1  0
  5 39  1  0
 11 40  1  0
 15 41  1  0
 16 42  1  0
 19 43  1  0
 20 44  1  0
 22 45  1  0
 23 46  1  0
 25 47  1  0
 25 48  1  0
 26 49  1  0
 26 50  1  0
 27 51  1  0
 28 52  1  0
 28 53  1  0
 28 54  1  0
 29 55  1  0
 29 56  1  0
 29 57  1  0
M  END
>  <mol_id>  (38) 
STK651130

>  <drugclip_rank>  (38) 
38

>  <conformer>  (38) 
34

>  <align_rmsd>  (38) 
0.317

$$$$
Y020-8586
     RDKit          3D

 47 50  0  0  0  0  0  0  0  0999 V2000
   -4.2783   -1.2125    2.0725 C   0  0  0  0  0  0  0  0  0  0  0  0
   -4.7922   -1.7546    0.7305 C   0  0  0  0  0  0  0  0  0  0  0  0
   -5.7927   -0.8809    0.1730 O   0  0  0  0  0  0  0  0  0  0  0  0
   -5.2546    0.4366   -0.0257 C   0  0  0  0  0  0  0  0  0  0  0  0
   -4.7594    1.0387    1.2994 C   0  0  0  0  0  0  0  0  0  0  0  0
   -3.7332    0.1578    1.9007 N   0  0  0  0  0  0  0  0  0  0  0  0
   -2.4092    0.2858    1.5261 C   0  0  0  0  0  0  0  0  0  0  0  0
   -1.6945   -0.7181    1.1358 N   0  0  0  0  0  0  0  0  0  0  0  0
   -1.8679    1.5385    1.6055 N   0  0  0  0  0  0  0  0  0  0  0  0
   -0.5615    1.8464    1.3212 C   0  0  0  0  0  0  0  0  0  0  0  0
   -0.1491    2.9897    1.4733 O   0  0  0  0  0  0  0  0  0  0  0  0
    0.2708    0.7307    0.8373 C   0  0  0  0  0  0  0  0  0  0  0  0
   -0.3606   -0.5068    0.7741 C   0  0  0  0  0  0  0  0  0  0  0  0
    1.6205    0.8256    0.4620 C   0  0  0  0  0  0  0  0  0  0  0  0
    2.2571   -0.3379    0.0096 C   0  0  0  0  0  0  0  0  0  0  0  0
    1.5458   -1.5246   -0.0246 C   0  0  0  0  0  0  0  0  0  0  0  0
    0.2577   -1.6323    0.3498 N   0  0  0  0  0  0  0  0  0  0  0  0
    2.3805    2.0870    0.4688 C   0  0  0  0  0  0  0  0  0  0  0  0
    3.6050    2.2032    1.0093 C   0  0  0  0  0  0  0  0  0  0  0  0
    4.3727    3.4565    1.0383 C   0  0  0  0  0  0  0  0  0  0  0  0
    5.1870    3.7273    2.1448 C   0  0  0  0  0  0  0  0  0  0  0  0
    5.9611    4.8939    2.2012 C   0  0  0  0  0  0  0  0  0  0  0  0
    5.9389    5.8012    1.1434 C   0  0  0  0  0  0  0  0  0  0  0  0
    5.1410    5.5279    0.0312 C   0  0  0  0  0  0  0  0  0  0  0  0
    4.3669    4.3645   -0.0256 C   0  0  0  0  0  0  0  0  0  0  0  0
    6.6434    6.9708    1.0695 O   0  0  0  0  0  0  0  0  0  0  0  0
    7.4428    7.3109    2.1951 C   0  0  0  0  0  0  0  0  0  0  0  0
   -5.1122   -1.1554    2.7830 H   0  0  0  0  0  0  0  0  0  0  0  0
   -3.5338   -1.8872    2.5098 H   0  0  0  0  0  0  0  0  0  0  0  0
   -5.2581   -2.7335    0.8799 H   0  0  0  0  0  0  0  0  0  0  0  0
   -3.9831   -1.8765    0.0018 H   0  0  0  0  0  0  0  0  0  0  0  0
   -6.0533    1.0596   -0.4402 H   0  0  0  0  0  0  0  0  0  0  0  0
   -4.4485    0.3856   -0.7671 H   0  0  0  0  0  0  0  0  0  0  0  0
   -4.3833    2.0530    1.1336 H   0  0  0  0  0  0  0  0  0  0  0  0
   -5.5977    1.1152    2.0025 H   0  0  0  0  0  0  0  0  0  0  0  0
   -2.4143    2.2832    2.0070 H   0  0  0  0  0  0  0  0  0  0  0  0
    3.2908   -0.3271   -0.3232 H   0  0  0  0  0  0  0  0  0  0  0  0
    2.0074   -2.4463   -0.3682 H   0  0  0  0  0  0  0  0  0  0  0  0
    1.8763    2.9491    0.0369 H   0  0  0  0  0  0  0  0  0  0  0  0
    4.0818    1.3538    1.4928 H   0  0  0  0  0  0  0  0  0  0  0  0
    5.2196    3.0362    2.9843 H   0  0  0  0  0  0  0  0  0  0  0  0
    6.5676    5.0592    3.0850 H   0  0  0  0  0  0  0  0  0  0  0  0
    5.1221    6.2261   -0.8020 H   0  0  0  0  0  0  0  0  0  0  0  0
    3.7691    4.1788   -0.9141 H   0  0  0  0  0  0  0  0  0  0  0  0
    8.2349    6.5717    2.3541 H   0  0  0  0  0  0  0  0  0  0  0  0
    6.8288    7.4331    3.0936 H   0  0  0  0  0  0  0  0  0  0  0  0
    7.9222    8.2722    1.9864 H   0  0  0  0  0  0  0  0  0  0  0  0
  1  2  1  0
  2  3  1  0
  3  4  1  0
  4  5  1  0
  5  6  1  0
  6  7  1  0
  7  8  2  0
  7  9  1  0
  9 10  1  0
 10 11  2  0
 10 12  1  0
 12 13  2  0
 12 14  1  0
 14 15  2  0
 15 16  1  0
 16 17  2  0
 14 18  1  0
 18 19  2  0
 19 20  1  0
 20 21  2  0
 21 22  1  0
 22 23  2  0
 23 24  1  0
 24 25  2  0
 23 26  1  0
 26 27  1  0
  6  1  1  0
 13  8  1  0
 17 13  1  0
 25 20  1  0
  1 28  1  0
  1 29  1  0
  2 30  1  0
  2 31  1  0
  4 32  1  0
  4 33  1  0
  5 34  1  0
  5 35  1  0
  9 36  1  0
 15 37  1  0
 16 38  1  0
 18 39  1  0
 19 40  1  0
 21 41  1  0
 22 42  1  0
 24 43  1  0
 25 44  1  0
 27 45  1  0
 27 46  1  0
 27 47  1  0
M  END
>  <mol_id>  (39) 
Y020-8586

>  <drugclip_rank>  (39) 
39

>  <conformer>  (39) 
3

>  <align_rmsd>  (39) 
0.481

$$$$
OSSK_425691
     RDKit          3D

 49 52  0  0  0  0  0  0  0  0999 V2000
    5.0216    3.1595    0.4326 C   0  0  0  0  0  0  0  0  0  0  0  0
    6.4123    3.0841    1.0859 C   0  0  0  0  0  0  0  0  0  0  0  0
    7.2190    4.3316    0.6975 C   0  0  0  0  0  0  0  0  0  0  0  0
    6.3392    3.0169    2.6211 C   0  0  0  0  0  0  0  0  0  0  0  0
    7.1322    1.9659    0.5393 O   0  0  0  0  0  0  0  0  0  0  0  0
    6.5386    0.6907    0.7887 C   0  0  0  0  0  0  0  0  0  0  0  0
    5.0546    0.6593    0.5652 C   0  0  0  0  0  0  0  0  0  0  0  0
    4.3192    1.8288    0.4501 C   0  0  0  0  0  0  0  0  0  0  0  0
    4.3477   -0.5381    0.5353 C   0  0  0  0  0  0  0  0  0  0  0  0
    2.9437   -0.5228    0.3791 C   0  0  0  0  0  0  0  0  0  0  0  0
    2.2882    0.7011    0.2767 C   0  0  0  0  0  0  0  0  0  0  0  0
    2.9697    1.8465    0.3037 N   0  0  0  0  0  0  0  0  0  0  0  0
    0.9729    0.7868    0.1532 N   0  0  0  0  0  0  0  0  0  0  0  0
    0.2742   -0.3481    0.1379 C   0  0  0  0  0  0  0  0  0  0  0  0
    0.7978   -1.5765    0.2224 N   0  0  0  0  0  0  0  0  0  0  0  0
    2.1246   -1.6501    0.3292 C   0  0  0  0  0  0  0  0  0  0  0  0
    2.6438   -2.9475    0.4097 N   0  0  0  0  0  0  0  0  0  0  0  0
   -1.4940   -0.2668   -0.0222 S   0  0  0  0  0  0  0  0  0  0  0  0
   -1.7325    1.5445    0.0398 C   0  0  0  0  0  0  0  0  0  0  0  0
   -3.1923    1.9791   -0.0684 C   0  0  0  0  0  0  0  0  0  0  0  0
   -3.4529    3.1686   -0.2475 O   0  0  0  0  0  0  0  0  0  0  0  0
   -4.1240    0.9713    0.0855 N   0  0  0  0  0  0  0  0  0  0  0  0
   -5.5291    1.0637    0.0529 C   0  0  0  0  0  0  0  0  0  0  0  0
   -6.2318    2.2581   -0.1106 C   0  0  0  0  0  0  0  0  0  0  0  0
   -7.6314    2.2604   -0.1324 C   0  0  0  0  0  0  0  0  0  0  0  0
   -8.3392    1.0689    0.0081 C   0  0  0  0  0  0  0  0  0  0  0  0
   -7.6479   -0.1279    0.1724 C   0  0  0  0  0  0  0  0  0  0  0  0
   -6.2499   -0.1297    0.1962 C   0  0  0  0  0  0  0  0  0  0  0  0
    4.4031    3.9212    0.9234 H   0  0  0  0  0  0  0  0  0  0  0  0
    5.1195    3.4411   -0.6246 H   0  0  0  0  0  0  0  0  0  0  0  0
    6.7467    5.2497    1.0641 H   0  0  0  0  0  0  0  0  0  0  0  0
    7.3251    4.4088   -0.3918 H   0  0  0  0  0  0  0  0  0  0  0  0
    8.2363    4.2780    1.1025 H   0  0  0  0  0  0  0  0  0  0  0  0
    5.9059    3.9326    3.0387 H   0  0  0  0  0  0  0  0  0  0  0  0
    7.3391    2.8784    3.0495 H   0  0  0  0  0  0  0  0  0  0  0  0
    5.7318    2.1768    2.9724 H   0  0  0  0  0  0  0  0  0  0  0  0
    6.7703    0.3868    1.8160 H   0  0  0  0  0  0  0  0  0  0  0  0
    7.0277   -0.0215    0.1154 H   0  0  0  0  0  0  0  0  0  0  0  0
    4.8737   -1.4825    0.6527 H   0  0  0  0  0  0  0  0  0  0  0  0
    1.8588   -3.5920    0.3292 H   0  0  0  0  0  0  0  0  0  0  0  0
    3.3304   -3.1206   -0.3170 H   0  0  0  0  0  0  0  0  0  0  0  0
   -1.3451    1.9332    0.9878 H   0  0  0  0  0  0  0  0  0  0  0  0
   -1.1949    2.0026   -0.7978 H   0  0  0  0  0  0  0  0  0  0  0  0
   -3.7365    0.0402    0.2034 H   0  0  0  0  0  0  0  0  0  0  0  0
   -5.7217    3.2098   -0.2223 H   0  0  0  0  0  0  0  0  0  0  0  0
   -8.1649    3.1990   -0.2592 H   0  0  0  0  0  0  0  0  0  0  0  0
   -9.4262    1.0754   -0.0097 H   0  0  0  0  0  0  0  0  0  0  0  0
   -8.1952   -1.0604    0.2824 H   0  0  0  0  0  0  0  0  0  0  0  0
   -5.7338   -1.0777    0.3266 H   0  0  0  0  0  0  0  0  0  0  0  0
  1  2  1  0
  2  3  1  0
  2  4  1  0
  2  5  1  0
  5  6  1  0
  6  7  1  0
  7  8  2  0
  7  9  1  0
  9 10  2  0
 10 11  1  0
 11 12  2  0
 11 13  1  0
 13 14  2  0
 14 15  1  0
 15 16  2  0
 16 17  1  0
 14 18  1  0
 18 19  1  0
 19 20  1  0
 20 21  2  0
 20 22  1  0
 22 23  1  0
 23 24  2  0
 24 25  1  0
 25 26  2  0
 26 27  1  0
 27 28  2  0
  8  1  1  0
 12  8  1  0
 16 10  1  0
 28 23  1  0
  1 29  1  0
  1 30  1  0
  3 31  1  0
  3 32  1  0
  3 33  1  0
  4 34  1  0
  4 35  1  0
  4 36  1  0
  6 37  1  0
  6 38  1  0
  9 39  1  0
 17 40  1  0
 17 41  1  0
 19 42  1  0
 19 43  1  0
 22 44  1  0
 24 45  1  0
 25 46  1  0
 26 47  1  0
 27 48  1  0
 28 49  1  0
M  END
>  <mol_id>  (40) 
OSSK_425691

>  <drugclip_rank>  (40) 
40

>  <conformer>  (40) 
7

>  <align_rmsd>  (40) 
0.466

$$$$
STK926028
     RDKit          3D

 49 52  0  0  0  0  0  0  0  0999 V2000
    6.5294    0.7992   -0.0380 C   0  0  0  0  0  0  0  0  0  0  0  0
    7.0421    2.0819   -0.4016 O   0  0  0  0  0  0  0  0  0  0  0  0
    6.4005    3.1941    0.2441 C   0  0  0  0  0  0  0  0  0  0  0  0
    6.5934    3.1531    1.7688 C   0  0  0  0  0  0  0  0  0  0  0  0
    7.0981    4.4508   -0.2957 C   0  0  0  0  0  0  0  0  0  0  0  0
    4.9174    3.2290   -0.1611 C   0  0  0  0  0  0  0  0  0  0  0  0
    4.2595    1.8844   -0.0101 C   0  0  0  0  0  0  0  0  0  0  0  0
    2.9047    1.8705    0.0675 N   0  0  0  0  0  0  0  0  0  0  0  0
    5.0305    0.7329   -0.0086 C   0  0  0  0  0  0  0  0  0  0  0  0
    4.3569   -0.4803    0.0902 C   0  0  0  0  0  0  0  0  0  0  0  0
    2.9468   -0.4976    0.1695 C   0  0  0  0  0  0  0  0  0  0  0  0
    2.2553    0.7100    0.1654 C   0  0  0  0  0  0  0  0  0  0  0  0
    2.1572   -1.6429    0.2656 C   0  0  0  0  0  0  0  0  0  0  0  0
    2.7130   -2.9265    0.2786 N   0  0  0  0  0  0  0  0  0  0  0  0
    0.8293   -1.5993    0.3754 N   0  0  0  0  0  0  0  0  0  0  0  0
    0.2717   -0.3844    0.3725 C   0  0  0  0  0  0  0  0  0  0  0  0
    0.9367    0.7650    0.2577 N   0  0  0  0  0  0  0  0  0  0  0  0
   -1.4997   -0.3403    0.4961 S   0  0  0  0  0  0  0  0  0  0  0  0
   -1.7596    1.4605    0.6254 C   0  0  0  0  0  0  0  0  0  0  0  0
   -3.2311    1.8328    0.7701 C   0  0  0  0  0  0  0  0  0  0  0  0
   -3.5456    2.8495    1.3857 O   0  0  0  0  0  0  0  0  0  0  0  0
   -4.1028    0.9932    0.1002 N   0  0  0  0  0  0  0  0  0  0  0  0
   -5.5012    1.1041   -0.0201 C   0  0  0  0  0  0  0  0  0  0  0  0
   -6.1681    0.0669   -0.6860 C   0  0  0  0  0  0  0  0  0  0  0  0
   -7.5554    0.0997   -0.8509 C   0  0  0  0  0  0  0  0  0  0  0  0
   -8.2897    1.1728   -0.3535 C   0  0  0  0  0  0  0  0  0  0  0  0
   -7.6351    2.2103    0.3063 C   0  0  0  0  0  0  0  0  0  0  0  0
   -6.2464    2.1768    0.4720 C   0  0  0  0  0  0  0  0  0  0  0  0
    6.9376    0.5178    0.9391 H   0  0  0  0  0  0  0  0  0  0  0  0
    6.9137    0.0867   -0.7755 H   0  0  0  0  0  0  0  0  0  0  0  0
    6.0762    2.3070    2.2324 H   0  0  0  0  0  0  0  0  0  0  0  0
    7.6548    3.0437    2.0201 H   0  0  0  0  0  0  0  0  0  0  0  0
    6.2168    4.0670    2.2411 H   0  0  0  0  0  0  0  0  0  0  0  0
    6.6588    5.3658    0.1153 H   0  0  0  0  0  0  0  0  0  0  0  0
    8.1666    4.4382   -0.0512 H   0  0  0  0  0  0  0  0  0  0  0  0
    7.0344    4.4957   -1.3890 H   0  0  0  0  0  0  0  0  0  0  0  0
    4.3741    3.9843    0.4187 H   0  0  0  0  0  0  0  0  0  0  0  0
    4.8267    3.4966   -1.2217 H   0  0  0  0  0  0  0  0  0  0  0  0
    4.9169   -1.4123    0.1232 H   0  0  0  0  0  0  0  0  0  0  0  0
    1.9425   -3.5903    0.3331 H   0  0  0  0  0  0  0  0  0  0  0  0
    3.2836   -3.0976   -0.5421 H   0  0  0  0  0  0  0  0  0  0  0  0
   -1.3791    1.9650   -0.2686 H   0  0  0  0  0  0  0  0  0  0  0  0
   -1.2322    1.8322    1.5103 H   0  0  0  0  0  0  0  0  0  0  0  0
   -3.6822    0.1585   -0.2947 H   0  0  0  0  0  0  0  0  0  0  0  0
   -5.6188   -0.7833   -1.0822 H   0  0  0  0  0  0  0  0  0  0  0  0
   -8.0612   -0.7126   -1.3661 H   0  0  0  0  0  0  0  0  0  0  0  0
   -9.3689    1.2018   -0.4786 H   0  0  0  0  0  0  0  0  0  0  0  0
   -8.2025    3.0508    0.6978 H   0  0  0  0  0  0  0  0  0  0  0  0
   -5.7780    3.0074    0.9901 H   0  0  0  0  0  0  0  0  0  0  0  0
  1  2  1  0
  2  3  1  0
  3  4  1  0
  3  5  1  0
  3  6  1  0
  6  7  1  0
  7  8  1  0
  7  9  2  0
  9 10  1  0
 10 11  2  0
 11 12  1  0
 11 13  1  0
 13 14  1  0
 13 15  2  0
 15 16  1  0
 16 17  2  0
 16 18  1  0
 18 19  1  0
 19 20  1  0
 20 21  2  0
 20 22  1  0
 22 23  1  0
 23 24  2  0
 24 25  1  0
 25 26  2  0
 26 27  1  0
 27 28  2  0
  9  1  1  0
 12  8  2  0
 17 12  1  0
 28 23  1  0
  1 29  1  0
  1 30  1  0
  4 31  1  0
  4 32  1  0
  4 33  1  0
  5 34  1  0
  5 35  1  0
  5 36  1  0
  6 37  1  0
  6 38  1  0
 10 39  1  0
 14 40  1  0
 14 41  1  0
 19 42  1  0
 19 43  1  0
 22 44  1  0
 24 45  1  0
 25 46  1  0
 26 47  1  0
 27 48  1  0
 28 49  1  0
M  END
>  <mol_id>  (41) 
STK926028

>  <drugclip_rank>  (41) 
41

>  <conformer>  (41) 
15

>  <align_rmsd>  (41) 
0.447

$$$$
STL090776
     RDKit          3D

 55 59  0  0  0  0  0  0  0  0999 V2000
   -0.7189    0.2360    0.5084 C   0  0  0  0  0  0  0  0  0  0  0  0
    0.4711   -0.0719    1.4147 C   0  0  0  0  0  0  0  0  0  0  0  0
    0.4764   -1.5380    1.8571 C   0  0  0  0  0  0  0  0  0  0  0  0
    0.8923   -2.4540    0.7130 C   0  0  0  0  0  0  0  0  0  0  0  0
    0.1563   -3.2665    0.1672 O   0  0  0  0  0  0  0  0  0  0  0  0
    2.1823   -2.3017    0.2901 N   0  0  0  0  0  0  0  0  0  0  0  0
   -0.8854   -1.9307    2.4388 C   0  0  0  0  0  0  0  0  0  0  0  0
   -2.0604   -1.5209    1.5498 C   0  0  0  0  0  0  0  0  0  0  0  0
   -1.9671   -0.0863    1.2124 N   0  0  0  0  0  0  0  0  0  0  0  0
   -3.1451    0.5674    0.8847 C   0  0  0  0  0  0  0  0  0  0  0  0
   -4.2674   -0.0553    0.7235 N   0  0  0  0  0  0  0  0  0  0  0  0
   -3.0890    1.9301    0.7651 N   0  0  0  0  0  0  0  0  0  0  0  0
   -4.1609    2.7413    0.4904 C   0  0  0  0  0  0  0  0  0  0  0  0
   -4.0149    3.9571    0.4574 O   0  0  0  0  0  0  0  0  0  0  0  0
   -5.4457    2.0546    0.2650 C   0  0  0  0  0  0  0  0  0  0  0  0
   -5.4171    0.6710    0.4009 C   0  0  0  0  0  0  0  0  0  0  0  0
   -6.6580    2.6848   -0.0668 C   0  0  0  0  0  0  0  0  0  0  0  0
   -7.7856    1.8680   -0.2421 C   0  0  0  0  0  0  0  0  0  0  0  0
   -7.6633    0.5003   -0.0831 C   0  0  0  0  0  0  0  0  0  0  0  0
   -6.5075   -0.1104    0.2326 N   0  0  0  0  0  0  0  0  0  0  0  0
   -6.8230    4.1330   -0.2434 C   0  0  0  0  0  0  0  0  0  0  0  0
   -6.9084    4.9917    0.8612 C   0  0  0  0  0  0  0  0  0  0  0  0
   -7.0959    6.3681    0.6865 C   0  0  0  0  0  0  0  0  0  0  0  0
   -7.2155    6.9261   -0.5955 C   0  0  0  0  0  0  0  0  0  0  0  0
   -7.1387    6.0619   -1.6985 C   0  0  0  0  0  0  0  0  0  0  0  0
   -6.9446    4.6865   -1.5263 C   0  0  0  0  0  0  0  0  0  0  0  0
   -7.4100    8.3729   -0.7786 C   0  0  0  0  0  0  0  0  0  0  0  0
   -8.5097    8.8700   -1.4977 C   0  0  0  0  0  0  0  0  0  0  0  0
   -8.6934   10.2450   -1.6725 C   0  0  0  0  0  0  0  0  0  0  0  0
   -7.7777   11.1457   -1.1327 C   0  0  0  0  0  0  0  0  0  0  0  0
   -6.6800   10.6733   -0.4175 C   0  0  0  0  0  0  0  0  0  0  0  0
   -6.4988    9.2981   -0.2416 C   0  0  0  0  0  0  0  0  0  0  0  0
   -0.6607   -0.3370   -0.4242 H   0  0  0  0  0  0  0  0  0  0  0  0
   -0.6680    1.2930    0.2277 H   0  0  0  0  0  0  0  0  0  0  0  0
    1.3992    0.1909    0.8979 H   0  0  0  0  0  0  0  0  0  0  0  0
    0.4145    0.5647    2.3059 H   0  0  0  0  0  0  0  0  0  0  0  0
    1.2302   -1.6687    2.6443 H   0  0  0  0  0  0  0  0  0  0  0  0
    2.4988   -2.9681   -0.4029 H   0  0  0  0  0  0  0  0  0  0  0  0
    2.8863   -1.9066    0.9005 H   0  0  0  0  0  0  0  0  0  0  0  0
   -0.9993   -1.4379    3.4130 H   0  0  0  0  0  0  0  0  0  0  0  0
   -0.9291   -3.0101    2.6256 H   0  0  0  0  0  0  0  0  0  0  0  0
   -2.9813   -1.7270    2.1094 H   0  0  0  0  0  0  0  0  0  0  0  0
   -2.0976   -2.1167    0.6320 H   0  0  0  0  0  0  0  0  0  0  0  0
   -2.2339    2.4115    0.9903 H   0  0  0  0  0  0  0  0  0  0  0  0
   -8.7519    2.2959   -0.4948 H   0  0  0  0  0  0  0  0  0  0  0  0
   -8.5164   -0.1589   -0.2087 H   0  0  0  0  0  0  0  0  0  0  0  0
   -6.8170    4.5966    1.8713 H   0  0  0  0  0  0  0  0  0  0  0  0
   -7.1526    7.0057    1.5670 H   0  0  0  0  0  0  0  0  0  0  0  0
   -7.2126    6.4598   -2.7088 H   0  0  0  0  0  0  0  0  0  0  0  0
   -6.8813    4.0499   -2.4069 H   0  0  0  0  0  0  0  0  0  0  0  0
   -9.2413    8.1829   -1.9187 H   0  0  0  0  0  0  0  0  0  0  0  0
   -9.5527   10.6102   -2.2287 H   0  0  0  0  0  0  0  0  0  0  0  0
   -7.9192   12.2152   -1.2691 H   0  0  0  0  0  0  0  0  0  0  0  0
   -5.9612   11.3726    0.0025 H   0  0  0  0  0  0  0  0  0  0  0  0
   -5.6285    8.9473    0.3099 H   0  0  0  0  0  0  0  0  0  0  0  0
  1  2  1  0
  2  3  1  0
  3  4  1  0
  4  5  2  0
  4  6  1  0
  3  7  1  0
  7  8  1  0
  8  9  1  0
  9 10  1  0
 10 11  2  0
 10 12  1  0
 12 13  1  0
 13 14  2  0
 13 15  1  0
 15 16  2  0
 15 17  1  0
 17 18  2  0
 18 19  1  0
 19 20  2  0
 17 21  1  0
 21 22  2  0
 22 23  1  0
 23 24  2  0
 24 25  1  0
 25 26  2  0
 24 27  1  0
 27 28  2  0
 28 29  1  0
 29 30  2  0
 30 31  1  0
 31 32  2  0
  9  1  1  0
 16 11  1  0
 20 16  1  0
 26 21  1  0
 32 27  1  0
  1 33  1  0
  1 34  1  0
  2 35  1  0
  2 36  1  0
  3 37  1  0
  6 38  1  0
  6 39  1  0
  7 40  1  0
  7 41  1  0
  8 42  1  0
  8 43  1  0
 12 44  1  0
 18 45  1  0
 19 46  1  0
 22 47  1  0
 23 48  1  0
 25 49  1  0
 26 50  1  0
 28 51  1  0
 29 52  1  0
 30 53  1  0
 31 54  1  0
 32 55  1  0
M  END
>  <mol_id>  (42) 
STL090776

>  <drugclip_rank>  (42) 
42

>  <conformer>  (42) 
2

>  <align_rmsd>  (42) 
1.273

$$$$
8003-0356
     RDKit          3D

 44 46  0  0  0  0  0  0  0  0999 V2000
   -8.2702   -1.0677    1.4043 F   0  0  0  0  0  0  0  0  0  0  0  0
   -8.7195   -0.1145    0.5404 C   0  0  0  0  0  0  0  0  0  0  0  0
   -9.8333    0.4148    1.1188 F   0  0  0  0  0  0  0  0  0  0  0  0
   -9.1516   -0.7848   -0.5626 F   0  0  0  0  0  0  0  0  0  0  0  0
   -7.6718    0.9181    0.2090 C   0  0  0  0  0  0  0  0  0  0  0  0
   -6.3137    0.5578    0.1436 C   0  0  0  0  0  0  0  0  0  0  0  0
   -5.3266    1.4983   -0.1830 C   0  0  0  0  0  0  0  0  0  0  0  0
   -5.7131    2.8112   -0.4528 C   0  0  0  0  0  0  0  0  0  0  0  0
   -7.0605    3.1803   -0.4002 C   0  0  0  0  0  0  0  0  0  0  0  0
   -8.0358    2.2401   -0.0746 C   0  0  0  0  0  0  0  0  0  0  0  0
   -3.9949    1.0402   -0.2166 N   0  0  0  0  0  0  0  0  0  0  0  0
   -2.8414    1.7552   -0.5058 C   0  0  0  0  0  0  0  0  0  0  0  0
   -2.8275    2.9527   -0.7851 O   0  0  0  0  0  0  0  0  0  0  0  0
   -1.6042    0.9704   -0.4530 C   0  0  0  0  0  0  0  0  0  0  0  0
   -1.5996   -0.6677    0.0651 S   0  0  0  0  0  0  0  0  0  0  0  0
   -0.3208    1.3848   -0.7715 C   0  0  0  0  0  0  0  0  0  0  0  0
   -0.0279    2.6281   -1.2172 N   0  0  0  0  0  0  0  0  0  0  0  0
    0.6681    0.3637   -0.5907 C   0  0  0  0  0  0  0  0  0  0  0  0
    0.0821   -0.8059   -0.1324 C   0  0  0  0  0  0  0  0  0  0  0  0
    2.0627    0.3255   -0.7881 C   0  0  0  0  0  0  0  0  0  0  0  0
    2.7518   -0.8669   -0.5196 C   0  0  0  0  0  0  0  0  0  0  0  0
    2.0381   -1.9775   -0.0511 C   0  0  0  0  0  0  0  0  0  0  0  0
    0.7087   -1.9627    0.1521 N   0  0  0  0  0  0  0  0  0  0  0  0
    2.6677   -3.1741    0.3312 N   0  0  0  0  0  0  0  0  0  0  0  0
    4.2139   -0.8522   -0.7528 C   0  0  0  0  0  0  0  0  0  0  0  0
    4.8850    0.1671   -0.7154 O   0  0  0  0  0  0  0  0  0  0  0  0
    4.6723   -2.0910   -1.0626 O   0  0  0  0  0  0  0  0  0  0  0  0
    6.0753   -2.1418   -1.3579 C   0  0  0  0  0  0  0  0  0  0  0  0
    6.4391   -3.5809   -1.6662 C   0  0  0  0  0  0  0  0  0  0  0  0
   -6.0365   -0.4744    0.3546 H   0  0  0  0  0  0  0  0  0  0  0  0
   -4.9920    3.5800   -0.7117 H   0  0  0  0  0  0  0  0  0  0  0  0
   -7.3450    4.2077   -0.6169 H   0  0  0  0  0  0  0  0  0  0  0  0
   -9.0811    2.5439   -0.0416 H   0  0  0  0  0  0  0  0  0  0  0  0
   -3.8504    0.0607   -0.0017 H   0  0  0  0  0  0  0  0  0  0  0  0
   -0.7501    3.3551   -1.2029 H   0  0  0  0  0  0  0  0  0  0  0  0
    0.9151    3.0040   -1.2249 H   0  0  0  0  0  0  0  0  0  0  0  0
    2.5901    1.2038   -1.1504 H   0  0  0  0  0  0  0  0  0  0  0  0
    3.2412   -3.0113    1.1539 H   0  0  0  0  0  0  0  0  0  0  0  0
    3.2989   -3.4717   -0.4129 H   0  0  0  0  0  0  0  0  0  0  0  0
    6.2925   -1.5096   -2.2260 H   0  0  0  0  0  0  0  0  0  0  0  0
    6.6483   -1.7922   -0.4918 H   0  0  0  0  0  0  0  0  0  0  0  0
    7.5036   -3.6733   -1.8987 H   0  0  0  0  0  0  0  0  0  0  0  0
    5.8574   -3.9516   -2.5167 H   0  0  0  0  0  0  0  0  0  0  0  0
    6.2051   -4.2283   -0.8146 H   0  0  0  0  0  0  0  0  0  0  0  0
  1  2  1  0
  2  3  1  0
  2  4  1  0
  2  5  1  0
  5  6  2  0
  6  7  1  0
  7  8  2  0
  8  9  1  0
  9 10  2  0
  7 11  1  0
 11 12  1  0
 12 13  2  0
 12 14  1  0
 14 15  1  0
 14 16  2  0
 16 17  1  0
 16 18  1  0
 18 19  2  0
 18 20  1  0
 20 21  2  0
 21 22  1  0
 22 23  2  0
 22 24  1  0
 21 25  1  0
 25 26  2  0
 25 27  1  0
 27 28  1  0
 28 29  1  0
 10  5  1  0
 19 15  1  0
 23 19  1  0
  6 30  1  0
  8 31  1  0
  9 32  1  0
 10 33  1  0
 11 34  1  0
 17 35  1  0
 17 36  1  0
 20 37  1  0
 24 38  1  0
 24 39  1  0
 28 40  1  0
 28 41  1  0
 29 42  1  0
 29 43  1  0
 29 44  1  0
M  END
>  <mol_id>  (43) 
8003-0356

>  <drugclip_rank>  (43) 
43

>  <conformer>  (43) 
10

>  <align_rmsd>  (43) 
0.795

$$$$
F813-2356
     RDKit          3D

 51 54  0  0  0  0  0  0  0  0999 V2000
   -8.8626   -1.5505   -0.6587 C   0  0  0  0  0  0  0  0  0  0  0  0
  -10.1468   -2.3052   -0.3186 C   0  0  0  0  0  0  0  0  0  0  0  0
   -9.6502   -3.4901    0.4948 C   0  0  0  0  0  0  0  0  0  0  0  0
   -8.5201   -2.8845    1.3242 C   0  0  0  0  0  0  0  0  0  0  0  0
   -7.9702   -1.8658    0.4487 N   0  0  0  0  0  0  0  0  0  0  0  0
   -6.9046   -1.0771    0.7313 C   0  0  0  0  0  0  0  0  0  0  0  0
   -5.9037   -1.3086    2.1219 S   0  0  0  0  0  0  0  0  0  0  0  0
   -6.5338   -0.0757   -0.0337 N   0  0  0  0  0  0  0  0  0  0  0  0
   -5.4233    0.5514    0.4811 C   0  0  0  0  0  0  0  0  0  0  0  0
   -4.9253    0.0222    1.6645 C   0  0  0  0  0  0  0  0  0  0  0  0
   -4.8706    1.6120   -0.1470 N   0  0  0  0  0  0  0  0  0  0  0  0
   -3.7998    2.1088    0.4680 C   0  0  0  0  0  0  0  0  0  0  0  0
   -3.2464    1.6718    1.6084 N   0  0  0  0  0  0  0  0  0  0  0  0
   -3.8060    0.6162    2.2295 C   0  0  0  0  0  0  0  0  0  0  0  0
   -3.0729    0.0019    3.7227 S   0  0  0  0  0  0  0  0  0  0  0  0
   -1.9944    1.4055    4.1749 C   0  0  0  0  0  0  0  0  0  0  0  0
   -0.7572    1.5568    3.2938 C   0  0  0  0  0  0  0  0  0  0  0  0
   -0.2302    2.6607    3.1662 O   0  0  0  0  0  0  0  0  0  0  0  0
   -0.2741    0.3678    2.7753 N   0  0  0  0  0  0  0  0  0  0  0  0
    0.8590    0.1686    1.9646 C   0  0  0  0  0  0  0  0  0  0  0  0
    1.7407    1.1827    1.5891 C   0  0  0  0  0  0  0  0  0  0  0  0
    2.8474    0.8985    0.7786 C   0  0  0  0  0  0  0  0  0  0  0  0
    1.1011   -1.1369    1.5180 C   0  0  0  0  0  0  0  0  0  0  0  0
    2.2058   -1.4252    0.7075 C   0  0  0  0  0  0  0  0  0  0  0  0
    3.0877   -0.4058    0.3324 C   0  0  0  0  0  0  0  0  0  0  0  0
    4.2789   -0.6505   -0.5262 C   0  0  0  0  0  0  0  0  0  0  0  0
    5.0594    0.2259   -0.8617 O   0  0  0  0  0  0  0  0  0  0  0  0
    4.3564   -1.9609   -0.8691 O   0  0  0  0  0  0  0  0  0  0  0  0
    5.4704   -2.3227   -1.6988 C   0  0  0  0  0  0  0  0  0  0  0  0
    5.1217   -2.1186   -3.1611 C   0  0  0  0  0  0  0  0  0  0  0  0
   -8.4339   -1.9198   -1.5972 H   0  0  0  0  0  0  0  0  0  0  0  0
   -9.0655   -0.4782   -0.7567 H   0  0  0  0  0  0  0  0  0  0  0  0
  -10.7982   -1.6760    0.3002 H   0  0  0  0  0  0  0  0  0  0  0  0
  -10.7059   -2.6035   -1.2098 H   0  0  0  0  0  0  0  0  0  0  0  0
  -10.4311   -3.9390    1.1146 H   0  0  0  0  0  0  0  0  0  0  0  0
   -9.2541   -4.2630   -0.1751 H   0  0  0  0  0  0  0  0  0  0  0  0
   -7.7875   -3.6523    1.5936 H   0  0  0  0  0  0  0  0  0  0  0  0
   -8.9214   -2.4297    2.2375 H   0  0  0  0  0  0  0  0  0  0  0  0
   -3.3204    2.9611   -0.0047 H   0  0  0  0  0  0  0  0  0  0  0  0
   -2.5723    2.3351    4.1541 H   0  0  0  0  0  0  0  0  0  0  0  0
   -1.6469    1.2459    5.2008 H   0  0  0  0  0  0  0  0  0  0  0  0
   -0.8501   -0.4469    2.9567 H   0  0  0  0  0  0  0  0  0  0  0  0
    1.6001    2.2108    1.9086 H   0  0  0  0  0  0  0  0  0  0  0  0
    3.5203    1.7078    0.4993 H   0  0  0  0  0  0  0  0  0  0  0  0
    0.4339   -1.9508    1.7917 H   0  0  0  0  0  0  0  0  0  0  0  0
    2.3623   -2.4494    0.3781 H   0  0  0  0  0  0  0  0  0  0  0  0
    6.3730   -1.7670   -1.4197 H   0  0  0  0  0  0  0  0  0  0  0  0
    5.6755   -3.3822   -1.5139 H   0  0  0  0  0  0  0  0  0  0  0  0
    4.9129   -1.0650   -3.3719 H   0  0  0  0  0  0  0  0  0  0  0  0
    5.9423   -2.4475   -3.8050 H   0  0  0  0  0  0  0  0  0  0  0  0
    4.2194   -2.6808   -3.4232 H   0  0  0  0  0  0  0  0  0  0  0  0
  1  2  1  0
  2  3  1  0
  3  4  1  0
  4  5  1  0
  5  6  1  0
  6  7  1  0
  6  8  2  0
  8  9  1  0
  9 10  2  0
  9 11  1  0
 11 12  2  0
 12 13  1  0
 13 14  2  0
 14 15  1  0
 15 16  1  0
 16 17  1  0
 17 18  2  0
 17 19  1  0
 19 20  1  0
 20 21  2  0
 21 22  1  0
 20 23  1  0
 23 24  2  0
 24 25  1  0
 25 26  1  0
 26 27  2  0
 26 28  1  0
 28 29  1  0
 29 30  1  0
  5  1  1  0
 10  7  1  0
 14 10  1  0
 25 22  2  0
  1 31  1  0
  1 32  1  0
  2 33  1  0
  2 34  1  0
  3 35  1  0
  3 36  1  0
  4 37  1  0
  4 38  1  0
 12 39  1  0
 16 40  1  0
 16 41  1  0
 19 42  1  0
 21 43  1  0
 22 44  1  0
 23 45  1  0
 24 46  1  0
 29 47  1  0
 29 48  1  0
 30 49  1  0
 30 50  1  0
 30 51  1  0
M  END
>  <mol_id>  (44) 
F813-2356

>  <drugclip_rank>  (44) 
44

>  <conformer>  (44) 
33

>  <align_rmsd>  (44) 
1.141

$$$$
STL354766
     RDKit          3D

 46 47  0  0  0  0  0  0  0  0999 V2000
    6.8515   -2.2533    1.1127 C   0  0  0  0  0  0  0  0  0  0  0  0
    6.1365   -2.5439   -0.1934 C   0  0  0  0  0  0  0  0  0  0  0  0
    4.7437   -2.2053   -0.0800 O   0  0  0  0  0  0  0  0  0  0  0  0
    4.4256   -0.9166   -0.3570 C   0  0  0  0  0  0  0  0  0  0  0  0
    5.2095   -0.0397   -0.6830 O   0  0  0  0  0  0  0  0  0  0  0  0
    2.9867   -0.6687   -0.1671 C   0  0  0  0  0  0  0  0  0  0  0  0
    2.5749    0.6388   -0.0057 C   0  0  0  0  0  0  0  0  0  0  0  0
    1.2914    1.0045    0.1894 N   0  0  0  0  0  0  0  0  0  0  0  0
    0.3921    0.0123    0.2174 C   0  0  0  0  0  0  0  0  0  0  0  0
    0.6889   -1.2844    0.0489 N   0  0  0  0  0  0  0  0  0  0  0  0
    1.9798   -1.6222   -0.1324 C   0  0  0  0  0  0  0  0  0  0  0  0
    2.1985   -2.9886   -0.3571 N   0  0  0  0  0  0  0  0  0  0  0  0
   -1.2989    0.4846    0.4588 S   0  0  0  0  0  0  0  0  0  0  0  0
   -2.0351   -1.1553    0.7604 C   0  0  0  0  0  0  0  0  0  0  0  0
   -3.5221   -1.0626    1.0795 C   0  0  0  0  0  0  0  0  0  0  0  0
   -4.0210   -1.8144    1.9145 O   0  0  0  0  0  0  0  0  0  0  0  0
   -4.2097   -0.1460    0.3023 N   0  0  0  0  0  0  0  0  0  0  0  0
   -5.5900    0.1308    0.3007 C   0  0  0  0  0  0  0  0  0  0  0  0
   -6.5302   -0.5718    1.0544 C   0  0  0  0  0  0  0  0  0  0  0  0
   -7.8910   -0.2366    0.9956 C   0  0  0  0  0  0  0  0  0  0  0  0
   -8.3259    0.8060    0.1804 C   0  0  0  0  0  0  0  0  0  0  0  0
   -7.3880    1.5084   -0.5762 C   0  0  0  0  0  0  0  0  0  0  0  0
   -6.0313    1.1744   -0.5193 C   0  0  0  0  0  0  0  0  0  0  0  0
   -9.6162    1.2331    0.0343 O   0  0  0  0  0  0  0  0  0  0  0  0
  -10.6156    0.5410    0.7813 C   0  0  0  0  0  0  0  0  0  0  0  0
  -11.9572    1.1805    0.4725 C   0  0  0  0  0  0  0  0  0  0  0  0
    6.3706   -2.7852    1.9403 H   0  0  0  0  0  0  0  0  0  0  0  0
    6.8112   -1.1863    1.3538 H   0  0  0  0  0  0  0  0  0  0  0  0
    7.8998   -2.5598    1.0577 H   0  0  0  0  0  0  0  0  0  0  0  0
    6.1870   -3.6158   -0.4111 H   0  0  0  0  0  0  0  0  0  0  0  0
    6.6065   -2.0210   -1.0343 H   0  0  0  0  0  0  0  0  0  0  0  0
    3.2831    1.4648   -0.0233 H   0  0  0  0  0  0  0  0  0  0  0  0
    2.5082   -3.1389   -1.3140 H   0  0  0  0  0  0  0  0  0  0  0  0
    2.9575   -3.3152    0.2414 H   0  0  0  0  0  0  0  0  0  0  0  0
   -1.9222   -1.7957   -0.1205 H   0  0  0  0  0  0  0  0  0  0  0  0
   -1.5349   -1.6198    1.6167 H   0  0  0  0  0  0  0  0  0  0  0  0
   -3.6305    0.4498   -0.2803 H   0  0  0  0  0  0  0  0  0  0  0  0
   -6.2413   -1.3936    1.7021 H   0  0  0  0  0  0  0  0  0  0  0  0
   -8.5787   -0.8157    1.6029 H   0  0  0  0  0  0  0  0  0  0  0  0
   -7.7156    2.3245   -1.2158 H   0  0  0  0  0  0  0  0  0  0  0  0
   -5.3317    1.7456   -1.1233 H   0  0  0  0  0  0  0  0  0  0  0  0
  -10.6465   -0.5146    0.4879 H   0  0  0  0  0  0  0  0  0  0  0  0
  -10.4175    0.6284    1.8560 H   0  0  0  0  0  0  0  0  0  0  0  0
  -12.1722    1.1278   -0.5999 H   0  0  0  0  0  0  0  0  0  0  0  0
  -12.7622    0.6808    1.0191 H   0  0  0  0  0  0  0  0  0  0  0  0
  -11.9501    2.2413    0.7442 H   0  0  0  0  0  0  0  0  0  0  0  0
  1  2  1  0
  2  3  1  0
  3  4  1  0
  4  5  2  0
  4  6  1  0
  6  7  2  0
  7  8  1  0
  8  9  2  0
  9 10  1  0
 10 11  2  0
 11 12  1  0
  9 13  1  0
 13 14  1  0
 14 15  1  0
 15 16  2  0
 15 17  1  0
 17 18  1  0
 18 19  2  0
 19 20  1  0
 20 21  2  0
 21 22  1  0
 22 23  2  0
 21 24  1  0
 24 25  1  0
 25 26  1  0
 11  6  1  0
 23 18  1  0
  1 27  1  0
  1 28  1  0
  1 29  1  0
  2 30  1  0
  2 31  1  0
  7 32  1  0
 12 33  1  0
 12 34  1  0
 14 35  1  0
 14 36  1  0
 17 37  1  0
 19 38  1  0
 20 39  1  0
 22 40  1  0
 23 41  1  0
 25 42  1  0
 25 43  1  0
 26 44  1  0
 26 45  1  0
 26 46  1  0
M  END
>  <mol_id>  (45) 
STL354766

>  <drugclip_rank>  (45) 
45

>  <conformer>  (45) 
33

>  <align_rmsd>  (45) 
0.541

$$$$
Y021-0832
     RDKit          3D

 48 51  0  0  0  0  0  0  0  0999 V2000
   -4.6359    1.3882    1.3102 C   0  0  0  0  0  0  0  0  0  0  0  0
   -5.3295    2.4075    2.2136 C   0  0  0  0  0  0  0  0  0  0  0  0
   -6.0867    1.7624    3.3771 C   0  0  0  0  0  0  0  0  0  0  0  0
   -6.2317    0.2574    3.1943 C   0  0  0  0  0  0  0  0  0  0  0  0
   -4.8709   -0.4127    2.9931 C   0  0  0  0  0  0  0  0  0  0  0  0
   -3.9722    0.3792    2.1302 N   0  0  0  0  0  0  0  0  0  0  0  0
   -2.7061   -0.1204    1.8829 C   0  0  0  0  0  0  0  0  0  0  0  0
   -2.3622   -1.3091    2.2662 N   0  0  0  0  0  0  0  0  0  0  0  0
   -1.8014    0.6821    1.2407 N   0  0  0  0  0  0  0  0  0  0  0  0
   -0.4961    0.3459    0.9826 C   0  0  0  0  0  0  0  0  0  0  0  0
    0.2619    1.1683    0.4840 O   0  0  0  0  0  0  0  0  0  0  0  0
   -0.0973   -1.0209    1.3567 C   0  0  0  0  0  0  0  0  0  0  0  0
   -1.0733   -1.7759    1.9964 C   0  0  0  0  0  0  0  0  0  0  0  0
    1.1693   -1.5874    1.1323 C   0  0  0  0  0  0  0  0  0  0  0  0
    1.3798   -2.9016    1.5775 C   0  0  0  0  0  0  0  0  0  0  0  0
    0.3492   -3.5775    2.2057 C   0  0  0  0  0  0  0  0  0  0  0  0
   -0.8668   -3.0438    2.4211 N   0  0  0  0  0  0  0  0  0  0  0  0
    2.2776   -0.8994    0.4600 C   0  0  0  0  0  0  0  0  0  0  0  0
    3.3351   -0.3527    1.1990 C   0  0  0  0  0  0  0  0  0  0  0  0
    4.4057    0.2725    0.5531 C   0  0  0  0  0  0  0  0  0  0  0  0
    4.4421    0.3700   -0.8393 C   0  0  0  0  0  0  0  0  0  0  0  0
    3.4008   -0.1804   -1.5837 C   0  0  0  0  0  0  0  0  0  0  0  0
    2.3284   -0.8103   -0.9388 C   0  0  0  0  0  0  0  0  0  0  0  0
    5.5480    1.0006   -1.3356 O   0  0  0  0  0  0  0  0  0  0  0  0
    5.5633    1.3682   -2.7139 C   0  0  0  0  0  0  0  0  0  0  0  0
    6.2081    0.2775   -3.5513 C   0  0  0  0  0  0  0  0  0  0  0  0
   -3.9531    1.9212    0.6426 H   0  0  0  0  0  0  0  0  0  0  0  0
   -5.3670    0.8982    0.6547 H   0  0  0  0  0  0  0  0  0  0  0  0
   -4.5881    3.1062    2.6211 H   0  0  0  0  0  0  0  0  0  0  0  0
   -6.0188    3.0087    1.6088 H   0  0  0  0  0  0  0  0  0  0  0  0
   -7.0728    2.2281    3.4853 H   0  0  0  0  0  0  0  0  0  0  0  0
   -5.5461    1.9603    4.3114 H   0  0  0  0  0  0  0  0  0  0  0  0
   -6.7368   -0.1843    4.0608 H   0  0  0  0  0  0  0  0  0  0  0  0
   -6.8731    0.0584    2.3264 H   0  0  0  0  0  0  0  0  0  0  0  0
   -4.3934   -0.5383    3.9729 H   0  0  0  0  0  0  0  0  0  0  0  0
   -5.0267   -1.4107    2.5663 H   0  0  0  0  0  0  0  0  0  0  0  0
   -2.0311    1.6404    1.0428 H   0  0  0  0  0  0  0  0  0  0  0  0
    2.3370   -3.3948    1.4316 H   0  0  0  0  0  0  0  0  0  0  0  0
    0.4788   -4.5959    2.5610 H   0  0  0  0  0  0  0  0  0  0  0  0
    3.3314   -0.4031    2.2855 H   0  0  0  0  0  0  0  0  0  0  0  0
    5.2153    0.6953    1.1429 H   0  0  0  0  0  0  0  0  0  0  0  0
    3.3890   -0.1460   -2.6671 H   0  0  0  0  0  0  0  0  0  0  0  0
    1.5254   -1.2294   -1.5414 H   0  0  0  0  0  0  0  0  0  0  0  0
    4.5734    1.6519   -3.0882 H   0  0  0  0  0  0  0  0  0  0  0  0
    6.1813    2.2705   -2.7868 H   0  0  0  0  0  0  0  0  0  0  0  0
    5.6396   -0.6557   -3.4999 H   0  0  0  0  0  0  0  0  0  0  0  0
    7.2145    0.0553   -3.1810 H   0  0  0  0  0  0  0  0  0  0  0  0
    6.2793    0.5853   -4.5984 H   0  0  0  0  0  0  0  0  0  0  0  0
  1  2  1  0
  2  3  1  0
  3  4  1  0
  4  5  1  0
  5  6  1  0
  6  7  1  0
  7  8  2  0
  7  9  1  0
  9 10  1  0
 10 11  2  0
 10 12  1  0
 12 13  2  0
 12 14  1  0
 14 15  2  0
 15 16  1  0
 16 17  2  0
 14 18  1  0
 18 19  2  0
 19 20  1  0
 20 21  2  0
 21 22  1  0
 22 23  2  0
 21 24  1  0
 24 25  1  0
 25 26  1  0
  6  1  1  0
 13  8  1  0
 17 13  1  0
 23 18  1  0
  1 27  1  0
  1 28  1  0
  2 29  1  0
  2 30  1  0
  3 31  1  0
  3 32  1  0
  4 33  1  0
  4 34  1  0
  5 35  1  0
  5 36  1  0
  9 37  1  0
 15 38  1  0
 16 39  1  0
 19 40  1  0
 20 41  1  0
 22 42  1  0
 23 43  1  0
 25 44  1  0
 25 45  1  0
 26 46  1  0
 26 47  1  0
 26 48  1  0
M  END
>  <mol_id>  (46) 
Y021-0832

>  <drugclip_rank>  (46) 
46

>  <conformer>  (46) 
21

>  <align_rmsd>  (46) 
0.59

$$$$
OSSL_871702
     RDKit          3D

 48 51  0  0  0  0  0  0  0  0999 V2000
   -4.6359    1.3882    1.3102 C   0  0  0  0  0  0  0  0  0  0  0  0
   -5.3295    2.4075    2.2136 C   0  0  0  0  0  0  0  0  0  0  0  0
   -6.0867    1.7624    3.3771 C   0  0  0  0  0  0  0  0  0  0  0  0
   -6.2317    0.2574    3.1943 C   0  0  0  0  0  0  0  0  0  0  0  0
   -4.8709   -0.4127    2.9931 C   0  0  0  0  0  0  0  0  0  0  0  0
   -3.9722    0.3792    2.1302 N   0  0  0  0  0  0  0  0  0  0  0  0
   -2.7061   -0.1204    1.8829 C   0  0  0  0  0  0  0  0  0  0  0  0
   -2.3622   -1.3091    2.2662 N   0  0  0  0  0  0  0  0  0  0  0  0
   -1.8014    0.6821    1.2407 N   0  0  0  0  0  0  0  0  0  0  0  0
   -0.4961    0.3459    0.9826 C   0  0  0  0  0  0  0  0  0  0  0  0
    0.2619    1.1683    0.4840 O   0  0  0  0  0  0  0  0  0  0  0  0
   -0.0973   -1.0209    1.3567 C   0  0  0  0  0  0  0  0  0  0  0  0
   -1.0733   -1.7759    1.9964 C   0  0  0  0  0  0  0  0  0  0  0  0
    1.1693   -1.5874    1.1323 C   0  0  0  0  0  0  0  0  0  0  0  0
    1.3798   -2.9016    1.5775 C   0  0  0  0  0  0  0  0  0  0  0  0
    0.3492   -3.5775    2.2057 C   0  0  0  0  0  0  0  0  0  0  0  0
   -0.8668   -3.0438    2.4211 N   0  0  0  0  0  0  0  0  0  0  0  0
    2.2776   -0.8994    0.4600 C   0  0  0  0  0  0  0  0  0  0  0  0
    3.3351   -0.3527    1.1990 C   0  0  0  0  0  0  0  0  0  0  0  0
    4.4057    0.2725    0.5531 C   0  0  0  0  0  0  0  0  0  0  0  0
    4.4421    0.3700   -0.8393 C   0  0  0  0  0  0  0  0  0  0  0  0
    3.4008   -0.1804   -1.5837 C   0  0  0  0  0  0  0  0  0  0  0  0
    2.3284   -0.8103   -0.9388 C   0  0  0  0  0  0  0  0  0  0  0  0
    5.5480    1.0006   -1.3356 O   0  0  0  0  0  0  0  0  0  0  0  0
    5.5633    1.3682   -2.7139 C   0  0  0  0  0  0  0  0  0  0  0  0
    6.2081    0.2775   -3.5513 C   0  0  0  0  0  0  0  0  0  0  0  0
   -3.9531    1.9212    0.6426 H   0  0  0  0  0  0  0  0  0  0  0  0
   -5.3670    0.8982    0.6547 H   0  0  0  0  0  0  0  0  0  0  0  0
   -4.5881    3.1062    2.6211 H   0  0  0  0  0  0  0  0  0  0  0  0
   -6.0188    3.0087    1.6088 H   0  0  0  0  0  0  0  0  0  0  0  0
   -7.0728    2.2281    3.4853 H   0  0  0  0  0  0  0  0  0  0  0  0
   -5.5461    1.9603    4.3114 H   0  0  0  0  0  0  0  0  0  0  0  0
   -6.7368   -0.1843    4.0608 H   0  0  0  0  0  0  0  0  0  0  0  0
   -6.8731    0.0584    2.3264 H   0  0  0  0  0  0  0  0  0  0  0  0
   -4.3934   -0.5383    3.9729 H   0  0  0  0  0  0  0  0  0  0  0  0
   -5.0267   -1.4107    2.5663 H   0  0  0  0  0  0  0  0  0  0  0  0
   -2.0311    1.6404    1.0428 H   0  0  0  0  0  0  0  0  0  0  0  0
    2.3370   -3.3948    1.4316 H   0  0  0  0  0  0  0  0  0  0  0  0
    0.4788   -4.5959    2.5610 H   0  0  0  0  0  0  0  0  0  0  0  0
    3.3314   -0.4031    2.2855 H   0  0  0  0  0  0  0  0  0  0  0  0
    5.2153    0.6953    1.1429 H   0  0  0  0  0  0  0  0  0  0  0  0
    3.3890   -0.1460   -2.6671 H   0  0  0  0  0  0  0  0  0  0  0  0
    1.5254   -1.2294   -1.5414 H   0  0  0  0  0  0  0  0  0  0  0  0
    4.5734    1.6519   -3.0882 H   0  0  0  0  0  0  0  0  0  0  0  0
    6.1813    2.2705   -2.7868 H   0  0  0  0  0  0  0  0  0  0  0  0
    5.6396   -0.6557   -3.4999 H   0  0  0  0  0  0  0  0  0  0  0  0
    7.2145    0.0553   -3.1810 H   0  0  0  0  0  0  0  0  0  0  0  0
    6.2793    0.5853   -4.5984 H   0  0  0  0  0  0  0  0  0  0  0  0
  1  2  1  0
  2  3  1  0
  3  4  1  0
  4  5  1  0
  5  6  1  0
  6  7  1  0
  7  8  2  0
  7  9  1  0
  9 10  1  0
 10 11  2  0
 10 12  1  0
 12 13  2  0
 12 14  1  0
 14 15  2  0
 15 16  1  0
 16 17  2  0
 14 18  1  0
 18 19  2  0
 19 20  1  0
 20 21  2  0
 21 22  1  0
 22 23  2  0
 21 24  1  0
 24 25  1  0
 25 26  1  0
  6  1  1  0
 13  8  1  0
 17 13  1  0
 23 18  1  0
  1 27  1  0
  1 28  1  0
  2 29  1  0
  2 30  1  0
  3 31  1  0
  3 32  1  0
  4 33  1  0
  4 34  1  0
  5 35  1  0
  5 36  1  0
  9 37  1  0
 15 38  1  0
 16 39  1  0
 19 40  1  0
 20 41  1  0
 22 42  1  0
 23 43  1  0
 25 44  1  0
 25 45  1  0
 26 46  1  0
 26 47  1  0
 26 48  1  0
M  END
>  <mol_id>  (47) 
OSSL_871702

>  <drugclip_rank>  (47) 
47

>  <conformer>  (47) 
21

>  <align_rmsd>  (47) 
0.59

$$$$
STL436056
     RDKit          3D

 48 51  0  0  0  0  0  0  0  0999 V2000
   -4.6359    1.3882    1.3102 C   0  0  0  0  0  0  0  0  0  0  0  0
   -5.3295    2.4075    2.2136 C   0  0  0  0  0  0  0  0  0  0  0  0
   -6.0867    1.7624    3.3771 C   0  0  0  0  0  0  0  0  0  0  0  0
   -6.2317    0.2574    3.1943 C   0  0  0  0  0  0  0  0  0  0  0  0
   -4.8709   -0.4127    2.9931 C   0  0  0  0  0  0  0  0  0  0  0  0
   -3.9722    0.3792    2.1302 N   0  0  0  0  0  0  0  0  0  0  0  0
   -2.7061   -0.1204    1.8829 C   0  0  0  0  0  0  0  0  0  0  0  0
   -2.3622   -1.3091    2.2662 N   0  0  0  0  0  0  0  0  0  0  0  0
   -1.8014    0.6821    1.2407 N   0  0  0  0  0  0  0  0  0  0  0  0
   -0.4961    0.3459    0.9826 C   0  0  0  0  0  0  0  0  0  0  0  0
    0.2619    1.1683    0.4840 O   0  0  0  0  0  0  0  0  0  0  0  0
   -0.0973   -1.0209    1.3567 C   0  0  0  0  0  0  0  0  0  0  0  0
   -1.0733   -1.7759    1.9964 C   0  0  0  0  0  0  0  0  0  0  0  0
    1.1693   -1.5874    1.1323 C   0  0  0  0  0  0  0  0  0  0  0  0
    1.3798   -2.9016    1.5775 C   0  0  0  0  0  0  0  0  0  0  0  0
    0.3492   -3.5775    2.2057 C   0  0  0  0  0  0  0  0  0  0  0  0
   -0.8668   -3.0438    2.4211 N   0  0  0  0  0  0  0  0  0  0  0  0
    2.2776   -0.8994    0.4600 C   0  0  0  0  0  0  0  0  0  0  0  0
    3.3351   -0.3527    1.1990 C   0  0  0  0  0  0  0  0  0  0  0  0
    4.4057    0.2725    0.5531 C   0  0  0  0  0  0  0  0  0  0  0  0
    4.4421    0.3700   -0.8393 C   0  0  0  0  0  0  0  0  0  0  0  0
    3.4008   -0.1804   -1.5837 C   0  0  0  0  0  0  0  0  0  0  0  0
    2.3284   -0.8103   -0.9388 C   0  0  0  0  0  0  0  0  0  0  0  0
    5.5480    1.0006   -1.3356 O   0  0  0  0  0  0  0  0  0  0  0  0
    5.5633    1.3682   -2.7139 C   0  0  0  0  0  0  0  0  0  0  0  0
    6.2081    0.2775   -3.5513 C   0  0  0  0  0  0  0  0  0  0  0  0
   -3.9531    1.9212    0.6426 H   0  0  0  0  0  0  0  0  0  0  0  0
   -5.3670    0.8982    0.6547 H   0  0  0  0  0  0  0  0  0  0  0  0
   -4.5881    3.1062    2.6211 H   0  0  0  0  0  0  0  0  0  0  0  0
   -6.0188    3.0087    1.6088 H   0  0  0  0  0  0  0  0  0  0  0  0
   -7.0728    2.2281    3.4853 H   0  0  0  0  0  0  0  0  0  0  0  0
   -5.5461    1.9603    4.3114 H   0  0  0  0  0  0  0  0  0  0  0  0
   -6.7368   -0.1843    4.0608 H   0  0  0  0  0  0  0  0  0  0  0  0
   -6.8731    0.0584    2.3264 H   0  0  0  0  0  0  0  0  0  0  0  0
   -4.3934   -0.5383    3.9729 H   0  0  0  0  0  0  0  0  0  0  0  0
   -5.0267   -1.4107    2.5663 H   0  0  0  0  0  0  0  0  0  0  0  0
   -2.0311    1.6404    1.0428 H   0  0  0  0  0  0  0  0  0  0  0  0
    2.3370   -3.3948    1.4316 H   0  0  0  0  0  0  0  0  0  0  0  0
    0.4788   -4.5959    2.5610 H   0  0  0  0  0  0  0  0  0  0  0  0
    3.3314   -0.4031    2.2855 H   0  0  0  0  0  0  0  0  0  0  0  0
    5.2153    0.6953    1.1429 H   0  0  0  0  0  0  0  0  0  0  0  0
    3.3890   -0.1460   -2.6671 H   0  0  0  0  0  0  0  0  0  0  0  0
    1.5254   -1.2294   -1.5414 H   0  0  0  0  0  0  0  0  0  0  0  0
    4.5734    1.6519   -3.0882 H   0  0  0  0  0  0  0  0  0  0  0  0
    6.1813    2.2705   -2.7868 H   0  0  0  0  0  0  0  0  0  0  0  0
    5.6396   -0.6557   -3.4999 H   0  0  0  0  0  0  0  0  0  0  0  0
    7.2145    0.0553   -3.1810 H   0  0  0  0  0  0  0  0  0  0  0  0
    6.2793    0.5853   -4.5984 H   0  0  0  0  0  0  0  0  0  0  0  0
  1  2  1  0
  2  3  1  0
  3  4  1  0
  4  5  1  0
  5  6  1  0
  6  7  1  0
  7  8  2  0
  7  9  1  0
  9 10  1  0
 10 11  2  0
 10 12  1  0
 12 13  2  0
 12 14  1  0
 14 15  2  0
 15 16  1  0
 16 17  2  0
 14 18  1  0
 18 19  2  0
 19 20  1  0
 20 21  2  0
 21 22  1  0
 22 23  2  0
 21 24  1  0
 24 25  1  0
 25 26  1  0
  6  1  1  0
 13  8  1  0
 17 13  1  0
 23 18  1  0
  1 27  1  0
  1 28  1  0
  2 29  1  0
  2 30  1  0
  3 31  1  0
  3 32  1  0
  4 33  1  0
  4 34  1  0
  5 35  1  0
  5 36  1  0
  9 37  1  0
 15 38  1  0
 16 39  1  0
 19 40  1  0
 20 41  1  0
 22 42  1  0
 23 43  1  0
 25 44  1  0
 25 45  1  0
 26 46  1  0
 26 47  1  0
 26 48  1  0
M  END
>  <mol_id>  (48) 
STL436056

>  <drugclip_rank>  (48) 
48

>  <conformer>  (48) 
21

>  <align_rmsd>  (48) 
0.59

$$$$
STL438604
     RDKit          3D

 45 47  0  0  0  0  0  0  0  0999 V2000
   -8.8461    2.6469   -2.1334 C   0  0  0  0  0  0  0  0  0  0  0  0
   -8.6088    2.4474   -0.6482 C   0  0  0  0  0  0  0  0  0  0  0  0
   -7.7809    1.2984   -0.4288 O   0  0  0  0  0  0  0  0  0  0  0  0
   -6.4321    1.5106   -0.4770 C   0  0  0  0  0  0  0  0  0  0  0  0
   -5.9151    2.6009   -0.6948 O   0  0  0  0  0  0  0  0  0  0  0  0
   -5.6717    0.2865   -0.2404 C   0  0  0  0  0  0  0  0  0  0  0  0
   -6.2477   -0.9540    0.0106 N   0  0  0  0  0  0  0  0  0  0  0  0
   -5.2396   -1.7853    0.1529 C   0  0  0  0  0  0  0  0  0  0  0  0
   -4.2910    0.1747   -0.2345 C   0  0  0  0  0  0  0  0  0  0  0  0
   -4.0286   -1.1527    0.0374 N   0  0  0  0  0  0  0  0  0  0  0  0
   -3.2604    1.0422   -0.4281 N   0  0  0  0  0  0  0  0  0  0  0  0
   -2.0705    0.6325   -0.3620 N   0  0  0  0  0  0  0  0  0  0  0  0
   -1.7632   -0.6928   -0.0758 C   0  0  0  0  0  0  0  0  0  0  0  0
   -2.7169   -1.6352    0.1373 C   0  0  0  0  0  0  0  0  0  0  0  0
   -2.5243   -2.9879    0.4173 N   0  0  0  0  0  0  0  0  0  0  0  0
   -0.2977   -1.0556    0.0186 C   0  0  0  0  0  0  0  0  0  0  0  0
    0.0554   -2.1681    0.4009 O   0  0  0  0  0  0  0  0  0  0  0  0
    0.5304   -0.0108   -0.3480 N   0  0  0  0  0  0  0  0  0  0  0  0
    1.9381    0.0098   -0.3819 C   0  0  0  0  0  0  0  0  0  0  0  0
    2.5494    1.2028   -0.7811 C   0  0  0  0  0  0  0  0  0  0  0  0
    3.9428    1.3019   -0.8408 C   0  0  0  0  0  0  0  0  0  0  0  0
    4.7484    0.2142   -0.5047 C   0  0  0  0  0  0  0  0  0  0  0  0
    4.1436   -0.9763   -0.1073 C   0  0  0  0  0  0  0  0  0  0  0  0
    2.7458   -1.0771   -0.0466 C   0  0  0  0  0  0  0  0  0  0  0  0
    6.0918    0.4434   -0.6056 O   0  0  0  0  0  0  0  0  0  0  0  0
    6.9611   -0.6391   -0.2776 C   0  0  0  0  0  0  0  0  0  0  0  0
    8.3911   -0.1634   -0.4617 C   0  0  0  0  0  0  0  0  0  0  0  0
   -7.9062    2.8426   -2.6591 H   0  0  0  0  0  0  0  0  0  0  0  0
   -9.5250    3.4863   -2.3082 H   0  0  0  0  0  0  0  0  0  0  0  0
   -9.2779    1.7444   -2.5783 H   0  0  0  0  0  0  0  0  0  0  0  0
   -8.1794    3.3436   -0.1860 H   0  0  0  0  0  0  0  0  0  0  0  0
   -9.5629    2.2546   -0.1468 H   0  0  0  0  0  0  0  0  0  0  0  0
   -5.3218   -2.8483    0.3362 H   0  0  0  0  0  0  0  0  0  0  0  0
   -3.0652   -3.3151    1.2160 H   0  0  0  0  0  0  0  0  0  0  0  0
   -1.5257   -3.1951    0.5732 H   0  0  0  0  0  0  0  0  0  0  0  0
    0.0634    0.8481   -0.6222 H   0  0  0  0  0  0  0  0  0  0  0  0
    1.9571    2.0730   -1.0515 H   0  0  0  0  0  0  0  0  0  0  0  0
    4.4036    2.2361   -1.1527 H   0  0  0  0  0  0  0  0  0  0  0  0
    4.7246   -1.8516    0.1639 H   0  0  0  0  0  0  0  0  0  0  0  0
    2.3237   -2.0264    0.2672 H   0  0  0  0  0  0  0  0  0  0  0  0
    6.8163   -0.9406    0.7663 H   0  0  0  0  0  0  0  0  0  0  0  0
    6.7785   -1.4895   -0.9447 H   0  0  0  0  0  0  0  0  0  0  0  0
    8.5963    0.6989    0.1813 H   0  0  0  0  0  0  0  0  0  0  0  0
    9.1009   -0.9599   -0.2217 H   0  0  0  0  0  0  0  0  0  0  0  0
    8.5595    0.1614   -1.4939 H   0  0  0  0  0  0  0  0  0  0  0  0
  1  2  1  0
  2  3  1  0
  3  4  1  0
  4  5  2  0
  4  6  1  0
  6  7  1  0
  7  8  2  0
  6  9  2  0
  9 10  1  0
  9 11  1  0
 11 12  2  0
 12 13  1  0
 13 14  2  0
 14 15  1  0
 13 16  1  0
 16 17  2  0
 16 18  1  0
 18 19  1  0
 19 20  2  0
 20 21  1  0
 21 22  2  0
 22 23  1  0
 23 24  2  0
 22 25  1  0
 25 26  1  0
 26 27  1  0
 10  8  1  0
 14 10  1  0
 24 19  1  0
  1 28  1  0
  1 29  1  0
  1 30  1  0
  2 31  1  0
  2 32  1  0
  8 33  1  0
 15 34  1  0
 15 35  1  0
 18 36  1  0
 20 37  1  0
 21 38  1  0
 23 39  1  0
 24 40  1  0
 26 41  1  0
 26 42  1  0
 27 43  1  0
 27 44  1  0
 27 45  1  0
M  END
>  <mol_id>  (49) 
STL438604

>  <drugclip_rank>  (49) 
49

>  <conformer>  (49) 
1

>  <align_rmsd>  (49) 
0.68

$$$$
STL167631
     RDKit          3D

 56 58  0  0  0  0  0  0  0  0999 V2000
   -7.4528    1.9742    1.9847 C   0  0  0  0  0  0  0  0  0  0  0  0
   -7.1957    2.2366    0.5127 C   0  0  0  0  0  0  0  0  0  0  0  0
   -5.8177    1.9846    0.2004 O   0  0  0  0  0  0  0  0  0  0  0  0
   -5.5043    0.7027   -0.1309 C   0  0  0  0  0  0  0  0  0  0  0  0
   -6.3237   -0.2078   -0.1807 O   0  0  0  0  0  0  0  0  0  0  0  0
   -4.1575    0.5410   -0.3897 N   0  0  0  0  0  0  0  0  0  0  0  0
   -3.2420    1.6677   -0.5809 C   0  0  0  0  0  0  0  0  0  0  0  0
   -1.8045    1.3400   -0.1399 C   0  0  0  0  0  0  0  0  0  0  0  0
   -3.6904   -0.7343   -0.9308 C   0  0  0  0  0  0  0  0  0  0  0  0
   -2.2630   -1.0753   -0.4743 C   0  0  0  0  0  0  0  0  0  0  0  0
   -1.3504    0.0597   -0.7080 N   0  0  0  0  0  0  0  0  0  0  0  0
   -0.0153   -0.2310   -0.4107 C   0  0  0  0  0  0  0  0  0  0  0  0
    0.3641   -1.5114   -0.2700 N   0  0  0  0  0  0  0  0  0  0  0  0
    1.6485   -1.7975    0.0100 C   0  0  0  0  0  0  0  0  0  0  0  0
    1.9452   -3.1604    0.1891 N   0  0  0  0  0  0  0  0  0  0  0  0
    2.5935   -0.8013    0.1814 C   0  0  0  0  0  0  0  0  0  0  0  0
    2.1389    0.4801   -0.0198 C   0  0  0  0  0  0  0  0  0  0  0  0
    0.8551    0.7855   -0.2930 N   0  0  0  0  0  0  0  0  0  0  0  0
    4.0035   -1.0933    0.5169 C   0  0  0  0  0  0  0  0  0  0  0  0
    4.4990   -2.1195    0.0656 O   0  0  0  0  0  0  0  0  0  0  0  0
    4.6190   -0.1782    1.3557 N   0  0  0  0  0  0  0  0  0  0  0  0
    5.9361   -0.2333    1.8619 C   0  0  0  0  0  0  0  0  0  0  0  0
    6.8580   -1.2329    1.5466 C   0  0  0  0  0  0  0  0  0  0  0  0
    8.1399   -1.2300    2.1152 C   0  0  0  0  0  0  0  0  0  0  0  0
    8.5118   -0.2264    3.0068 C   0  0  0  0  0  0  0  0  0  0  0  0
    7.6032    0.7900    3.3031 C   0  0  0  0  0  0  0  0  0  0  0  0
    6.3243    0.7856    2.7393 C   0  0  0  0  0  0  0  0  0  0  0  0
    9.7242   -0.1168    3.6274 O   0  0  0  0  0  0  0  0  0  0  0  0
   10.5269   -1.2973    3.6698 C   0  0  0  0  0  0  0  0  0  0  0  0
   11.6864   -1.0388    4.6138 C   0  0  0  0  0  0  0  0  0  0  0  0
   -6.7855    2.5800    2.6075 H   0  0  0  0  0  0  0  0  0  0  0  0
   -8.4878    2.2098    2.2454 H   0  0  0  0  0  0  0  0  0  0  0  0
   -7.2591    0.9269    2.2356 H   0  0  0  0  0  0  0  0  0  0  0  0
   -7.3858    3.2910    0.2892 H   0  0  0  0  0  0  0  0  0  0  0  0
   -7.8677    1.6484   -0.1212 H   0  0  0  0  0  0  0  0  0  0  0  0
   -3.2598    1.9103   -1.6509 H   0  0  0  0  0  0  0  0  0  0  0  0
   -3.5900    2.5533   -0.0399 H   0  0  0  0  0  0  0  0  0  0  0  0
   -1.7719    1.2878    0.9575 H   0  0  0  0  0  0  0  0  0  0  0  0
   -1.1656    2.1723   -0.4610 H   0  0  0  0  0  0  0  0  0  0  0  0
   -4.3695   -1.5459   -0.6466 H   0  0  0  0  0  0  0  0  0  0  0  0
   -3.7235   -0.6469   -2.0244 H   0  0  0  0  0  0  0  0  0  0  0  0
   -2.2800   -1.3247    0.5959 H   0  0  0  0  0  0  0  0  0  0  0  0
   -1.9430   -1.9644   -1.0321 H   0  0  0  0  0  0  0  0  0  0  0  0
    2.2051   -3.3314    1.1562 H   0  0  0  0  0  0  0  0  0  0  0  0
    2.7899   -3.3737   -0.3498 H   0  0  0  0  0  0  0  0  0  0  0  0
    2.7998    1.3403    0.0162 H   0  0  0  0  0  0  0  0  0  0  0  0
    4.0604    0.5807    1.7246 H   0  0  0  0  0  0  0  0  0  0  0  0
    6.6176   -2.0353    0.8547 H   0  0  0  0  0  0  0  0  0  0  0  0
    8.8239   -2.0219    1.8283 H   0  0  0  0  0  0  0  0  0  0  0  0
    7.8911    1.5859    3.9858 H   0  0  0  0  0  0  0  0  0  0  0  0
    5.6455    1.5910    3.0009 H   0  0  0  0  0  0  0  0  0  0  0  0
    9.9440   -2.1437    4.0476 H   0  0  0  0  0  0  0  0  0  0  0  0
   10.9175   -1.5243    2.6736 H   0  0  0  0  0  0  0  0  0  0  0  0
   11.3197   -0.7213    5.5960 H   0  0  0  0  0  0  0  0  0  0  0  0
   12.3021   -1.9364    4.7376 H   0  0  0  0  0  0  0  0  0  0  0  0
   12.3156   -0.2259    4.2345 H   0  0  0  0  0  0  0  0  0  0  0  0
  1  2  1  0
  2  3  1  0
  3  4  1  0
  4  5  2  0
  4  6  1  0
  6  7  1  0
  7  8  1  0
  6  9  1  0
  9 10  1  0
 10 11  1  0
 11 12  1  0
 12 13  2  0
 13 14  1  0
 14 15  1  0
 14 16  2  0
 16 17  1  0
 17 18  2  0
 16 19  1  0
 19 20  2  0
 19 21  1  0
 21 22  1  0
 22 23  2  0
 23 24  1  0
 24 25  2  0
 25 26  1  0
 26 27  2  0
 25 28  1  0
 28 29  1  0
 29 30  1  0
 11  8  1  0
 18 12  1  0
 27 22  1  0
  1 31  1  0
  1 32  1  0
  1 33  1  0
  2 34  1  0
  2 35  1  0
  7 36  1  0
  7 37  1  0
  8 38  1  0
  8 39  1  0
  9 40  1  0
  9 41  1  0
 10 42  1  0
 10 43  1  0
 15 44  1  0
 15 45  1  0
 17 46  1  0
 21 47  1  0
 23 48  1  0
 24 49  1  0
 26 50  1  0
 27 51  1  0
 29 52  1  0
 29 53  1  0
 30 54  1  0
 30 55  1  0
 30 56  1  0
M  END
>  <mol_id>  (50) 
STL167631

>  <drugclip_rank>  (50) 
50

>  <conformer>  (50) 
10

>  <align_rmsd>  (50) 
0.832

$$$$
