OSSL_644910
     RDKit          3D

 30 33  0  0  0  0  0  0  0  0999 V2000
    6.3112   -3.3644    1.2585 C   0  0  0  0  0  0  0  0  0  0  0  0
    6.0354   -2.0778    0.5056 C   0  0  0  0  0  0  0  0  0  0  0  0
    4.6147   -1.8797    0.4681 O   0  0  0  0  0  0  0  0  0  0  0  0
    4.2277   -0.7584   -0.1929 C   0  0  0  0  0  0  0  0  0  0  0  0
    4.9657    0.0449   -0.7359 O   0  0  0  0  0  0  0  0  0  0  0  0
    2.7642   -0.6218   -0.1205 C   0  0  0  0  0  0  0  0  0  0  0  0
    2.1768    0.6077    0.1473 C   0  0  0  0  0  0  0  0  0  0  0  0
    0.8339    0.7583    0.2154 N   0  0  0  0  0  0  0  0  0  0  0  0
    2.9753    1.8568    0.3847 C   0  0  0  0  0  0  0  0  0  0  0  0
    1.9007   -1.6954   -0.3223 C   0  0  0  0  0  0  0  0  0  0  0  0
    2.3457   -2.9823   -0.6660 N   0  0  0  0  0  0  0  0  0  0  0  0
    0.5661   -1.5571   -0.2683 N   0  0  0  0  0  0  0  0  0  0  0  0
    0.0846   -0.3353    0.0033 C   0  0  0  0  0  0  0  0  0  0  0  0
   -1.3763   -0.1991    0.0618 C   0  0  0  0  0  0  0  0  0  0  0  0
   -2.3486   -1.1342    0.4233 C   0  0  0  0  0  0  0  0  0  0  0  0
   -2.0469   -2.5108    0.9358 C   0  0  0  0  0  0  0  0  0  0  0  0
   -2.0862    1.3008   -0.3785 S   0  0  0  0  0  0  0  0  0  0  0  0
   -3.6590    0.7135   -0.1566 C   0  0  0  0  0  0  0  0  0  0  0  0
   -3.6940   -0.6100    0.2419 C   0  0  0  0  0  0  0  0  0  0  0  0
   -4.7091    1.5172   -0.3786 N   0  0  0  0  0  0  0  0  0  0  0  0
   -5.8888    0.9200   -0.1752 C   0  0  0  0  0  0  0  0  0  0  0  0
   -6.0600   -0.3662    0.1884 N   0  0  0  0  0  0  0  0  0  0  0  0
   -4.9855   -1.1469    0.3949 C   0  0  0  0  0  0  0  0  0  0  0  0
   -5.2559   -2.4720    0.7198 N   0  0  0  0  0  0  0  0  0  0  0  0
   -7.1079    1.7347   -0.3816 C   0  0  0  0  0  0  0  0  0  0  0  0
   -7.0351    3.0741   -0.8140 C   0  0  0  0  0  0  0  0  0  0  0  0
   -8.1857    3.8455   -1.0101 C   0  0  0  0  0  0  0  0  0  0  0  0
   -9.4418    3.2948   -0.7771 C   0  0  0  0  0  0  0  0  0  0  0  0
   -9.5478    1.9755   -0.3484 C   0  0  0  0  0  0  0  0  0  0  0  0
   -8.3947    1.2074   -0.1538 C   0  0  0  0  0  0  0  0  0  0  0  0
  1  2  1  0
  2  3  1  0
  3  4  1  0
  4  5  2  0
  4  6  1  0
  6  7  2  0
  7  8  1  0
  7  9  1  0
  6 10  1  0
 10 11  1  0
 10 12  2  0
 12 13  1  0
 13 14  1  0
 14 15  2  0
 15 16  1  0
 14 17  1  0
 17 18  1  0
 18 19  2  0
 18 20  1  0
 20 21  2  0
 21 22  1  0
 22 23  2  0
 23 24  1  0
 21 25  1  0
 25 26  2  0
 26 27  1  0
 27 28  2  0
 28 29  1  0
 29 30  2  0
 13  8  2  0
 19 15  1  0
 23 19  1  0
 30 25  1  0
M  END
>  <mol_id>  (1) 
OSSL_644910

>  <drugclip_rank>  (1) 
20

>  <conformer>  (1) 
11

>  <align_rmsd>  (1) 
0.826

$$$$
