3K23_JZN_B2
     RDKit          3D

 47 51  0  0  0  0  0  0  0  0999 V2000
   26.7290   10.2580   14.5070 C   0  0  0  0  0  0  0  0  0  0  0  0
   31.3080    7.5580   17.3220 F   0  0  0  0  0  0  0  0  0  0  0  0
   29.9850    6.7380   11.5140 N   0  0  0  0  0  0  0  0  0  0  0  0
   26.5380    8.9520   15.0440 O   0  0  0  0  0  0  0  0  0  0  0  0
   27.7400    8.5610   15.6050 C   0  0  0  0  0  0  0  0  0  0  0  0
   29.3960    3.0420   13.0160 F   0  0  0  0  0  0  0  0  0  0  0  0
   32.4730    8.3690    8.0210 N   0  0  0  0  0  0  0  0  0  0  0  0
   27.9830    5.0550   12.0950 O   0  0  0  0  0  0  0  0  0  0  0  0
   28.5340    9.5500   16.1400 C   0  0  0  0  0  0  0  0  0  0  0  0
   30.5070    4.3410   11.6980 F   0  0  0  0  0  0  0  0  0  0  0  0
   31.4120    7.6810    7.5560 N   0  0  0  0  0  0  0  0  0  0  0  0
   36.7150    6.3440    7.3390 O   0  0  0  0  0  0  0  0  0  0  0  0
   29.7310    9.2160   16.7160 C   0  0  0  0  0  0  0  0  0  0  0  0
   30.9830    4.2890   13.8570 F   0  0  0  0  0  0  0  0  0  0  0  0
   37.6860    6.7900    5.3550 N   0  0  0  0  0  0  0  0  0  0  0  0
   38.0120    8.7710    2.7550 O   0  0  0  0  0  0  0  0  0  0  0  0
   30.1300    7.9010   16.7570 C   0  0  0  0  0  0  0  0  0  0  0  0
   39.7220    7.4320    3.5020 N   0  0  0  0  0  0  0  0  0  0  0  0
   29.3300    6.9220   16.2260 C   0  0  0  0  0  0  0  0  0  0  0  0
   28.1210    7.2280   15.6380 C   0  0  0  0  0  0  0  0  0  0  0  0
   27.3090    6.0810   15.0760 C   0  0  1  0  0  0  0  0  0  0  0  0
   26.5480    5.4960   16.2370 C   0  0  0  0  0  0  0  0  0  0  0  0
   26.2740    6.4520   14.0380 C   0  0  0  0  0  0  0  0  0  0  0  0
   28.2130    5.0040   14.4780 C   0  0  0  0  0  0  0  0  0  0  0  0
   28.9220    5.2860   13.1380 C   0  0  2  0  0  0  0  0  0  0  0  0
   29.5460    6.6640   12.9070 C   0  0  0  0  0  0  0  0  0  0  0  0
   31.1280    7.4980   11.1670 C   0  0  0  0  0  0  0  0  0  0  0  0
   32.0190    8.0970   12.0350 C   0  0  0  0  0  0  0  0  0  0  0  0
   33.1070    8.8160   11.5900 C   0  0  0  0  0  0  0  0  0  0  0  0
   34.0170    9.4270   12.5910 C   0  0  0  0  0  0  0  0  0  0  0  0
   33.3900    8.9940   10.2520 C   0  0  0  0  0  0  0  0  0  0  0  0
   32.5090    8.3980    9.3900 C   0  0  0  0  0  0  0  0  0  0  0  0
   30.7780    7.2450    8.6420 C   0  0  0  0  0  0  0  0  0  0  0  0
   31.4160    7.6720    9.8250 C   0  0  0  0  0  0  0  0  0  0  0  0
   33.5230    8.6040    7.1190 C   0  0  0  0  0  0  0  0  0  0  0  0
   33.4720    9.6480    6.2270 C   0  0  0  0  0  0  0  0  0  0  0  0
   34.5100    9.8470    5.3390 C   0  0  0  0  0  0  0  0  0  0  0  0
   35.6050    9.0130    5.3210 C   0  0  0  0  0  0  0  0  0  0  0  0
   35.6360    7.9730    6.2150 C   0  0  0  0  0  0  0  0  0  0  0  0
   34.6030    7.7630    7.1120 C   0  0  0  0  0  0  0  0  0  0  0  0
   36.7280    7.0030    6.3130 C   0  0  0  0  0  0  0  0  0  0  0  0
   38.5430    5.6610    5.6750 C   0  0  0  0  0  0  0  0  0  0  0  0
   38.9200    4.9620    4.3990 C   0  0  0  0  0  0  0  0  0  0  0  0
   37.9440    5.5010    3.3910 C   0  0  0  0  0  0  0  0  0  0  0  0
   37.4600    6.8100    3.9440 C   0  0  0  0  0  0  0  0  0  0  0  0
   38.4100    7.7870    3.3500 C   0  0  0  0  0  0  0  0  0  0  0  0
   29.9200    4.1650   13.0450 C   0  0  2  0  0  0  0  0  0  0  0  0
  4  1  1  0
  5  4  1  0
  9  5  2  0
 11  7  1  0
 13  9  1  0
 17 13  2  0
 17  2  1  0
 19 17  1  0
 20 19  2  0
 20  5  1  0
 21 20  1  0
 21 22  1  1
 23 21  1  0
 24 21  1  0
 25 24  1  0
 25  8  1  6
 26 25  1  0
 26  3  1  0
 27  3  1  0
 28 27  2  0
 29 28  1  0
 30 29  1  0
 31 29  2  0
 32  7  1  0
 32 31  1  0
 33 11  2  0
 34 33  1  0
 34 32  2  0
 34 27  1  0
 35  7  1  0
 36 35  2  0
 37 36  1  0
 38 37  2  0
 39 38  1  0
 40 39  2  0
 40 35  1  0
 41 15  1  0
 41 39  1  0
 41 12  2  0
 42 15  1  0
 43 42  1  0
 44 43  1  0
 45 44  1  0
 45 15  1  0
 45 46  1  0
 46 16  2  0
 46 18  1  0
 47 25  1  0
 47 14  1  1
 47 10  1  0
 47  6  1  0
M  CHG  1  15   1
M  END
>  <_TriposChargeType>  (1) 
GASTEIGER

$$$$
