7PRX_82H_A801
     RDKit          3D

 44 49  0  0  0  0  0  0  0  0999 V2000
   34.3760   10.4440    5.5500 C   0  0  0  0  0  0  0  0  0  0  0  0
   35.4080    9.5610    5.3330 C   0  0  0  0  0  0  0  0  0  0  0  0
   27.7290    7.4100   13.0480 C   0  0  0  0  0  0  0  0  0  0  0  0
   32.5580    7.7820   11.1520 C   0  0  0  0  0  0  0  0  0  0  0  0
   30.6290    6.6900   10.2040 C   0  0  0  0  0  0  0  0  0  0  0  0
   34.3390    7.9150    6.7130 C   0  0  0  0  0  0  0  0  0  0  0  0
   29.7040    8.6070   13.5830 C   0  0  0  0  0  0  0  0  0  0  0  0
   30.4240    7.2360    7.6950 C   0  0  0  0  0  0  0  0  0  0  0  0
   30.9840    7.2550    8.9990 C   0  0  0  0  0  0  0  0  0  0  0  0
   35.3990    8.3130    5.9260 C   0  0  0  0  0  0  0  0  0  0  0  0
   29.1020    7.4310   13.1910 C   0  0  0  0  0  0  0  0  0  0  0  0
   32.1040    8.0560    8.9030 C   0  0  0  0  0  0  0  0  0  0  0  0
   33.3110    8.8120    6.9040 C   0  0  0  0  0  0  0  0  0  0  0  0
   31.4490    6.9830   11.2780 C   0  0  0  0  0  0  0  0  0  0  0  0
   36.4820    7.3460    5.6370 C   0  0  0  0  0  0  0  0  0  0  0  0
   28.5590    5.6600   15.9450 C   0  0  0  0  0  0  0  0  0  0  0  0
   37.6080    5.2880    3.5980 C   0  0  0  0  0  0  0  0  0  0  0  0
   27.4200   11.8240   14.6630 C   0  0  0  0  0  0  0  0  0  0  0  0
   38.0510    6.7260    3.6940 C   0  0  0  0  0  0  0  0  0  0  0  0
   29.8940    6.1890   12.8770 C   0  0  0  0  0  0  0  0  0  0  0  0
   29.9810    5.2490   14.0410 C   0  0  0  0  0  0  0  0  0  0  0  0
   27.2250    5.4360   16.5830 C   0  0  1  0  0  0  0  0  0  0  0  0
   32.9450    8.3470    9.9610 C   0  0  0  0  0  0  0  0  0  0  0  0
   33.3180   10.0640    6.3360 C   0  0  0  0  0  0  0  0  0  0  0  0
   26.9540    8.5120   13.3150 C   0  0  0  0  0  0  0  0  0  0  0  0
   27.5580    9.6720   13.7250 C   0  0  0  0  0  0  0  0  0  0  0  0
   28.9340    9.7210   13.8330 C   0  0  0  0  0  0  0  0  0  0  0  0
   38.6670    4.4910    4.3380 C   0  0  0  0  0  0  0  0  0  0  0  0
   28.7770   12.0350   14.0210 C   0  0  0  0  0  0  0  0  0  0  0  0
   39.4660    6.6700    4.1850 C   0  0  0  0  0  0  0  0  0  0  0  0
   30.5460    3.9370   13.6020 C   0  0  0  0  0  0  0  0  0  0  0  0
   26.5120    6.7570   16.4840 C   0  0  0  0  0  0  0  0  0  0  0  0
   31.1410    7.9830    6.8520 N   0  0  0  0  0  0  0  0  0  0  0  0
   32.1680    8.4470    7.5970 N   0  0  0  0  0  0  0  0  0  0  0  0
   37.2250    7.6260    4.4920 N   0  0  0  0  0  0  0  0  0  0  0  0
   28.7370    5.0570   14.7180 N   0  0  0  0  0  0  0  0  0  0  0  0
   36.5540    6.3510    6.3360 O   0  0  0  0  0  0  0  0  0  0  0  0
   29.3890    6.3680   16.4950 O   0  0  0  0  0  0  0  0  0  0  0  0
   26.7330   10.7800   13.9640 O   0  0  0  0  0  0  0  0  0  0  0  0
   29.5920   10.8750   14.2450 O   0  0  0  0  0  0  0  0  0  0  0  0
   39.7220    5.3770    4.7280 O   0  0  0  0  0  0  0  0  0  0  0  0
   31.2560    6.4770   12.5580 O   0  0  0  0  0  0  0  0  0  0  0  0
   26.4970    4.4210   16.0370 F   0  0  0  0  0  0  0  0  0  0  0  0
   27.3280    5.1150   17.8960 F   0  0  0  0  0  0  0  0  0  0  0  0
  2  1  2  0
  9  8  1  0
  9  5  2  0
 10  2  1  0
 10  6  2  0
 11  7  1  0
 11  3  2  0
 12  9  1  0
 13  6  1  0
 14  5  1  0
 14  4  2  0
 15 10  1  0
 19 17  1  0
 20 11  1  0
 21 20  1  0
 22 16  1  0
 23 12  2  0
 23  4  1  0
 24 13  2  0
 24  1  1  0
 25  3  1  0
 26 25  2  0
 27 26  1  0
 27  7  2  0
 28 17  1  0
 29 18  1  0
 30 19  1  0
 21 31  1  0
 22 32  1  1
 33  8  2  0
 34 33  1  0
 34 12  1  0
 34 13  1  0
 19 35  1  0
 35 15  1  0
 36 21  1  0
 36 16  1  0
 37 15  2  0
 38 16  2  0
 39 26  1  0
 39 18  1  0
 40 27  1  0
 40 29  1  0
 41 28  1  0
 41 30  1  0
 20 42  1  0
 42 14  1  0
 43 22  1  0
 44 22  1  0
M  END
>  <_TriposChargeType>  (1) 
GASTEIGER

$$$$
