@<TRIPOS>MOLECULE
1LUG_SUA_A1002
 17 17 0 0 0
SMALL
GASTEIGER

@<TRIPOS>ATOM
      1  S1        -5.8670    0.9680   16.7180 S.O2  1002  SUA1002     0.0935
      2  O1        -7.2860    1.0600   16.5900 O.2   1002  SUA1002    -0.1503
      3  O2        -5.3170    1.1140   18.0520 O.2   1002  SUA1002    -0.1503
      4  N1        -5.3370   -0.3560   16.0400 N.3   1002  SUA1002     0.0392
      5  C1        -3.2940    3.4160   14.8120 C.ar  1002  SUA1002     0.0180
      6  C2        -3.8720    2.3490   15.4820 C.ar  1002  SUA1002     0.0213
      7  C3        -5.2140    2.3250   15.7850 C.ar  1002  SUA1002     0.1251
      8  C4        -6.0150    3.3830   15.4190 C.ar  1002  SUA1002     0.0213
      9  C5        -5.4680    4.4390   14.7170 C.ar  1002  SUA1002     0.0180
     10  C6        -4.0990    4.5010   14.4730 C.ar  1002  SUA1002     0.0741
     11  N2        -3.5760    5.6320   13.8690 N.am  1002  SUA1002    -0.1731
     12  C7        -4.1030    6.1880   12.8740 C.2   1002  SUA1002     0.2534
     13  S2        -2.9690    7.0950   12.2280 S.2   1002  SUA1002     0.0079
     14  O3        -5.4560    6.3780   12.3540 O.3   1002  SUA1002    -0.4571
     15  C8        -6.1940    7.4780   11.6330 C.3   1002  SUA1002     0.2074
     16  C9        -6.7180    6.7040   10.4290 C.3   1002  SUA1002     0.0474
     17  C10       -7.1200    7.8730    9.5120 C.3   1002  SUA1002     0.0040
@<TRIPOS>BOND
     1    17    16    1
     2    16    15    1
     3    15    14    1
     4    13    12    2
     5    14    12    1
     6    12    11    1
     7    11    10    1
     8    10     9   ar
     9    10     5   ar
    10     9     8   ar
    11     5     6   ar
    12     8     7   ar
    13     6     7   ar
    14     7     1    1
    15     4     1    1
    16     2     1    2
    17     1     3    2
