@<TRIPOS>MOLECULE
2NNV_M29_A301
 17 17 0 0 0
SMALL
GASTEIGER

@<TRIPOS>ATOM
      1 C          -5.1330    2.3190   15.6630 C.ar    1  UNL1        0.1250
      2 C          -5.9530    3.3920   15.2670 C.ar    1  UNL1        0.0197
      3 C          -5.4420    4.4220   14.4980 C.ar    1  UNL1       -0.0029
      4 C          -4.1120    4.4230   14.1230 C.ar    1  UNL1       -0.0215
      5 C          -3.2850    3.3830   14.5030 C.ar    1  UNL1       -0.0029
      6 C          -3.8030    2.3110   15.2570 C.ar    1  UNL1        0.0197
      7 S          -5.8040    1.0060   16.6410 S.O2    1  UNL1        0.0935
      8 O          -7.2460    1.1360   16.5210 O.2     1  UNL1       -0.1503
      9 O          -5.2330    1.2130   17.9650 O.2     1  UNL1       -0.1503
     10 N          -5.3200   -0.4020   16.0240 N.3     1  UNL1        0.0392
     11 C          -3.5660    5.5560   13.3160 C.3     1  UNL1        0.0380
     12 C          -2.6090    6.3940   14.1250 C.3     1  UNL1        0.1142
     13 C          -2.0250    7.6110   13.4770 C.2     1  UNL1        0.3173
     14 O          -1.1600    8.2920   14.2690 O.3     1  UNL1       -0.4485
     15 O          -2.3370    7.9320   12.3760 O.2     1  UNL1       -0.2501
     16 C          -0.7360    9.5740   13.7670 C.3     1  UNL1        0.2086
     17 C           0.0410   10.2170   14.9070 C.3     1  UNL1        0.0513
@<TRIPOS>BOND
     1     2     1   ar
     2     3     2   ar
     3     4     3   ar
     4     5     4   ar
     5     6     5   ar
     6     6     1   ar
     7     7     1    1
     8     8     7    2
     9     9     7    2
    10     7    10    1
    11    11     4    1
    12    12    11    1
    13    13    12    1
    14    14    13    1
    15    15    13    2
    16    16    14    1
    17    17    16    1
