@<TRIPOS>MOLECULE
3HS4_AZM_A701
 13 13 0 0 0
SMALL
GASTEIGER

@<TRIPOS>ATOM
      1 C          -5.0090    2.1580   15.7330 C.ar    1  UNL1        0.2590
      2 C          -4.5870    4.0210   14.2610 C.ar    1  UNL1        0.2093
      3 C          -5.7200    5.7250   13.0510 C.2     1  UNL1        0.2478
      4 C          -5.5630    6.8180   12.0160 C.3     1  UNL1        0.0969
      5 N          -5.3610   -0.4720   16.1410 N.3     1  UNL1        0.0413
      6 N          -3.4980    3.3820   14.6350 N.ar    1  UNL1       -0.1222
      7 N          -3.7320    2.2490   15.4770 N.ar    1  UNL1       -0.1189
      8 N          -4.5680    5.1310   13.4190 N.am    1  UNL1       -0.1528
      9 O          -5.2540    1.1530   18.0230 O.2     1  UNL1       -0.1483
     10 O          -7.1700    1.1510   16.5040 O.2     1  UNL1       -0.1483
     11 O          -6.8180    5.3670   13.4550 O.2     1  UNL1       -0.2729
     12 S          -5.7800    0.9120   16.7340 S.O2    1  UNL1        0.1178
     13 S          -5.9750    3.3830   14.9550 S.2     1  UNL1       -0.0087
@<TRIPOS>BOND
     1     4     3    1
     2     6     2   ar
     3     7     6   ar
     4     7     1   ar
     5     8     3   am
     6     8     2    1
     7    11     3    2
     8    12    10    2
     9    12     5    1
    10    12     1    1
    11    12     9    2
    12    13     2   ar
    13    13     1   ar
