@<TRIPOS>MOLECULE
4FU5_0VX_A303
 10 10 0 0 0
SMALL
GASTEIGER

@<TRIPOS>ATOM
      1 C          -4.7670    3.0260   15.1050 C.2     1  UNL1        0.3232
      2 O          -5.8940    3.6340   15.0040 O.2     1  UNL1       -0.4459
      3 N          -3.8260    3.7050   14.6110 N.pl3   1  UNL1       -0.1831
      4 N          -4.5390    1.8980   15.8150 N.2     1  UNL1       -0.0608
      5 C          -4.3720    5.0260   13.9720 C.3     1  UNL1        0.1642
      6 C          -5.7040    5.0030   14.4860 C.3     1  UNL1        0.2319
      7 S          -5.5860    0.9540   16.5480 S.O2    1  UNL1        0.1750
      8 N          -5.2920   -0.4740   16.0580 N.3     1  UNL1        0.0586
      9 O          -6.8870    1.3500   16.2340 O.2     1  UNL1       -0.1315
     10 O          -5.2210    1.1320   17.9410 O.2     1  UNL1       -0.1315
@<TRIPOS>BOND
     1     2     1    1
     2     3     1    1
     3     4     1    2
     4     5     3    1
     5     6     2    1
     6     6     5    1
     7     7     4    1
     8     7     8    1
     9     9     7    2
    10    10     7    2
