@<TRIPOS>MOLECULE
4MTY_SBW_A302
 21 22 0 0 0
SMALL
GASTEIGER

@<TRIPOS>ATOM
      1 O          -5.3500    1.0920   18.1000 O.2     1  UNL1       -0.1503
      2 S          -5.9070    0.9290   16.7700 S.O2    1  UNL1        0.0935
      3 O          -7.3240    1.0260   16.6360 O.2     1  UNL1       -0.1503
      4 N          -5.3780   -0.3760   16.0910 N.3     1  UNL1        0.0392
      5 C          -5.3030    2.2850   15.8410 C.ar    1  UNL1        0.1251
      6 C          -3.9460    2.3100   15.4740 C.ar    1  UNL1        0.0202
      7 C          -3.4360    3.4080   14.7620 C.ar    1  UNL1        0.0059
      8 C          -6.1130    3.3610   15.4780 C.ar    1  UNL1        0.0202
      9 C          -5.5930    4.4200   14.7560 C.ar    1  UNL1        0.0059
     10 C          -4.2630    4.4550   14.3830 C.ar    1  UNL1        0.0551
     11 C          -3.7430    5.6380   13.6130 C.2     1  UNL1        0.2651
     12 O          -4.5220    6.5950   13.3730 O.2     1  UNL1       -0.2684
     13 N          -2.5130    5.6420   13.2210 N.am    1  UNL1       -0.1968
     14 C          -1.9040    6.7160   12.4390 C.3     1  UNL1        0.1419
     15 C          -1.2510    7.7860   13.2790 C.ar    1  UNL1        0.0026
     16 C          -1.7110    8.1480   14.5240 C.ar    1  UNL1       -0.0023
     17 C          -1.1070    9.1370   15.2790 C.ar    1  UNL1        0.0030
     18 C          -0.0190    9.7610   14.7810 C.ar    1  UNL1        0.0420
     19 C           0.5200    9.3750   13.5710 C.ar    1  UNL1        0.1955
     20 O           1.6420   10.0140   13.1300 O.3     1  UNL1       -0.2866
     21 C          -0.0940    8.3680   12.8450 C.ar    1  UNL1        0.0395
@<TRIPOS>BOND
     1     2     1    2
     2     3     2    2
     3     2     4    1
     4     5     2    1
     5     6     5   ar
     6     7     6   ar
     7     8     5   ar
     8     9     8   ar
     9    10     9   ar
    10    10     7   ar
    11    11    10    1
    12    12    11    2
    13    13    11   am
    14    14    13    1
    15    15    14    1
    16    16    15   ar
    17    17    16   ar
    18    18    17   ar
    19    19    18   ar
    20    20    19    1
    21    21    19   ar
    22    21    15   ar
