@<TRIPOS>MOLECULE
5OGN_B8B_A302
 30 47 0 0 0
SMALL
GASTEIGER

@<TRIPOS>ATOM
      1  S         -5.4600    1.0210   16.3490 S.O2  302  B8B302      0.0000
      2  O1        -6.8330    1.3970   16.3190 O.2   302  B8B302      0.0000
      3  N1        -4.6360    1.8070   15.0310 N.3   302  B8B302      0.0000
      4  C1        -4.4700    3.7090   13.6880 C.3   302  B8B302      0.0000
      5  C2        -4.9460    3.2450   15.0510 C.3   302  B8B302      0.0000
      6  C3        -5.2660    5.7440   11.9730 C.3   302  B8B302      0.0000
      7  C4        -4.5810    5.2120   13.3800 C.3   302  B8B302      0.0000
      8  O3        -4.7340    1.4980   17.6220 O.2   302  B8B302      0.0000
      9  N2        -5.1900   -0.5140   16.0050 N.3   302  B8B302      0.0000
     10 CO         -3.2190    5.7960   11.9180 Co.oh 302  B8B302      0.0000
     11  C16       -1.6920    4.3750   12.2230 C.3   302  B8B302      0.0000
     12  B8        -3.4100    6.3730   13.9140 B     302  B8B302      0.0000
     13  C17       -2.8480    3.8600   10.9750 C.3   302  B8B302      0.0000
     14  B7        -1.1810    3.2870   10.8980 B     302  B8B302      0.0000
     15  B5        -0.3220    4.2820    9.6940 B     302  B8B302      0.0000
     16  B6        -0.1170    4.6100   11.4280 B     302  B8B302      0.0000
     17  B4        -0.2750    5.9530   10.2900 B     302  B8B302      0.0000
     18  B18       -3.0500    5.2270    9.8790 B     302  B8B302      0.0000
     19  B2        -2.0210    3.8420    9.4080 B     302  B8B302      0.0000
     20  B1        -1.4740    5.4990    9.0700 B     302  B8B302      0.0000
     21  B16       -4.6560    7.2540   11.4770 B     302  B8B302      0.0000
     22  B9        -3.4640    7.7350   12.7310 B     302  B8B302      0.0000
     23  B13       -5.1400    8.3780   12.7520 B     302  B8B302      0.0000
     24  B11       -6.2650    7.1070   12.2420 B     302  B8B302      0.0000
     25  B14       -4.3580    7.8520   14.2750 B     302  B8B302      0.0000
     26  B15       -5.0290    6.2560   14.6800 B     302  B8B302      0.0000
     27  B12       -6.0850    7.4990   13.9710 B     302  B8B302      0.0000
     28  B10       -6.2010    5.8080   13.4340 B     302  B8B302      0.0000
     29  B0        -1.1610    5.9310   11.7670 B     302  B8B302      0.0000
     30  B3        -1.9430    6.4230   10.4230 B     302  B8B302      0.0000
@<TRIPOS>BOND
     1    20    19    1
     2    20    18    1
     3    20    17    1
     4    20    30    1
     5    19    15    1
     6    19    18    1
     7    19    13    1
     8    15    14    1
     9    15    16    1
    10    18    30    1
    11    18    13    1
    12    17    30    1
    13    17    16    1
    14    17    29    1
    15    30    29    1
    16    14    13    1
    17    14    16    1
    18    14    11    1
    19    13    11    1
    20    16    29    1
    21    21     6    1
    22    21    22    1
    23    21    23    1
    24    29    11    1
    25    10    12    1
    26     6    24    1
    27     6     7    1
    28     6    28    1
    29    24    23    1
    30    24    28    1
    31    24    27    1
    32    22    12    1
    33    22    25    1
    34    23    27    1
    35    23    25    1
    36     7    28    1
    37     7     4    1
    38     7    26    1
    39    28    26    1
    40     4     5    1
    41    27    26    1
    42    25    26    1
    43     3     5    1
    44     3     1    1
    45     9     1    1
    46     2     1    2
    47     1     8    2
