@<TRIPOS>MOLECULE
6GDC_FB2_A305
 10 10 0 0 0
SMALL
GASTEIGER

@<TRIPOS>ATOM
      1 C          -4.3450    4.6610   14.5990 C.ar    1  UNL1        0.0001
      2 C          -3.4770    3.6460   14.9440 C.ar    1  UNL1        0.0014
      3 C          -3.9440    2.5100   15.5980 C.ar    1  UNL1        0.0200
      4 C          -5.2940    2.4080   15.9010 C.ar    1  UNL1        0.1250
      5 C          -6.1680    3.4330   15.5590 C.ar    1  UNL1        0.0200
      6 C          -5.6800    4.5560   14.9050 C.ar    1  UNL1        0.0014
      7 S          -5.8990    0.9950   16.7720 S.O2    1  UNL1        0.0935
      8 O          -5.3550    1.0740   18.1000 O.2     1  UNL1       -0.1503
      9 O          -7.3370    1.0240   16.6370 O.2     1  UNL1       -0.1503
     10 N          -5.3300   -0.3220   16.0470 N.3     1  UNL1        0.0392
@<TRIPOS>BOND
     1     2     1   ar
     2     3     2   ar
     3     4     3   ar
     4     5     4   ar
     5     6     5   ar
     6     6     1   ar
     7     7     4    1
     8     8     7    2
     9     9     7    2
    10     7    10    1
