@<TRIPOS>MOLECULE
6I0W_M4S_A308
 12 12 0 0 0
SMALL
GASTEIGER

@<TRIPOS>ATOM
      1 C          -4.0390    2.5110   15.5190 C.ar    1  UNL1        0.0231
      2 N          -5.3260   -0.3400   16.0520 N.3     1  UNL1        0.0392
      3 O          -4.1910    5.8620   13.9770 O.3     1  UNL1       -0.4714
      4 S          -5.9150    0.9710   16.8030 S.O2    1  UNL1        0.0935
      5 C          -3.6190    3.6590   14.8530 C.ar    1  UNL1        0.0383
      6 O          -5.3770    1.0470   18.1310 O.2     1  UNL1       -0.1503
      7 C          -4.5120    4.6840   14.5980 C.ar    1  UNL1        0.1388
      8 O          -7.3580    0.9880   16.6890 O.2     1  UNL1       -0.1503
      9 C          -5.8290    4.5690   15.0020 C.ar    1  UNL1        0.0383
     10 C          -5.3590    2.4110   15.9250 C.ar    1  UNL1        0.1252
     11 C          -2.8350    6.0540   13.5780 C.3     1  UNL1        0.2525
     12 C          -6.2640    3.4270   15.6600 C.ar    1  UNL1        0.0231
@<TRIPOS>BOND
     1     4     2    1
     2     5     1   ar
     3     6     4    2
     4     7     5   ar
     5     7     3    1
     6     8     4    2
     7     9     7   ar
     8    10     4    1
     9    10     1   ar
    10    11     3    1
    11    12     9   ar
    12    12    10   ar
