@<TRIPOS>MOLECULE
6I3E_H1Z_A309
 15 15 0 0 0
SMALL
GASTEIGER

@<TRIPOS>ATOM
      1 C          -4.2080    4.5740   14.5590 C.ar    1  UNL1        0.1386
      2 C          -3.4060    3.4660   14.7660 C.ar    1  UNL1        0.0383
      3 C          -3.9230    2.3540   15.4090 C.ar    1  UNL1        0.0231
      4 C          -5.2500    2.3550   15.8220 C.ar    1  UNL1        0.1252
      5 C          -6.0620    3.4510   15.5750 C.ar    1  UNL1        0.0231
      6 C          -5.5350    4.5630   14.9440 C.ar    1  UNL1        0.0383
      7 O          -7.3130    1.0530   16.6000 O.2     1  UNL1       -0.1503
      8 S          -5.8930    0.9900   16.7460 S.O2    1  UNL1        0.0935
      9 O          -5.3530    1.1040   18.0700 O.2     1  UNL1       -0.1503
     10 N          -5.3390   -0.3370   16.0740 N.3     1  UNL1        0.0392
     11 O          -3.7550    5.7350   13.9870 O.3     1  UNL1       -0.4755
     12 C          -2.3820    5.7920   13.5720 C.3     1  UNL1        0.2054
     13 C          -2.0100    7.2300   13.2630 C.3     1  UNL1        0.0473
     14 C          -1.8560    8.0880   14.5160 C.3     1  UNL1        0.0038
     15 C          -1.2740    9.4360   14.2320 C.3     1  UNL1        0.0001
@<TRIPOS>BOND
     1     2     1   ar
     2     3     2   ar
     3     4     3   ar
     4     5     4   ar
     5     6     5   ar
     6     6     1   ar
     7     8     7    2
     8     8     4    1
     9     9     8    2
    10     8    10    1
    11    11     1    1
    12    12    11    1
    13    13    12    1
    14    14    13    1
    15    15    14    1
