@<TRIPOS>MOLECULE
6RFH_4SO_A305
 13 13 0 0 0
SMALL
GASTEIGER

@<TRIPOS>ATOM
      1 O          -5.4050    1.0570   18.1200 O.2     1  UNL1       -0.1503
      2 O          -4.1100    6.6410   13.5290 O.co2   1  UNL1       -0.2406
      3 C          -5.4200    4.4940   14.8250 C.ar    1  UNL1        0.0079
      4 C          -6.0020    3.4190   15.4640 C.ar    1  UNL1        0.0202
      5 C          -5.2030    2.3690   15.9190 C.ar    1  UNL1        0.1251
      6 S          -5.9020    0.9740   16.7610 S.O2    1  UNL1        0.0935
      7 N          -5.3440   -0.3240   16.0540 N.3     1  UNL1        0.0392
      8 C          -3.4180    5.7170   13.9350 C.2     1  UNL1        0.3878
      9 C          -4.0400    4.5570   14.6350 C.ar    1  UNL1        0.0799
     10 C          -3.2540    3.5230   15.1250 C.ar    1  UNL1        0.0079
     11 C          -3.8250    2.4300   15.7590 C.ar    1  UNL1        0.0202
     12 O          -7.3090    1.0750   16.5580 O.2     1  UNL1       -0.1503
     13 O          -2.1240    5.6840   13.8220 O.co2   1  UNL1       -0.2406
@<TRIPOS>BOND
     1     4     3   ar
     2     5     4   ar
     3     6     5    1
     4     6     1    2
     5     6     7    1
     6     8     2   ar
     7     9     3   ar
     8     9     8    1
     9    10     9   ar
    10    11    10   ar
    11    11     5   ar
    12    12     6    2
    13    13     8   ar
