@<TRIPOS>MOLECULE
6RH4_4NZ_A308
 13 13 0 0 0
SMALL
GASTEIGER

@<TRIPOS>ATOM
      1 S          -5.8740    0.9730   16.7480 S.O2    1  UNL1        0.0935
      2 C          -4.0920    4.4950   14.5510 C.ar    1  UNL1        0.2901
      3 N          -5.3360   -0.3430   16.0870 N.3     1  UNL1        0.0392
      4 O          -5.3550    1.1070   18.0870 O.2     1  UNL1       -0.1503
      5 C          -5.4480    4.4940   14.8060 C.ar    1  UNL1        0.0766
      6 O          -7.3150    1.0690   16.5940 O.2     1  UNL1       -0.1503
      7 C          -6.0100    3.4070   15.4620 C.ar    1  UNL1        0.0263
      8 C          -5.2010    2.3400   15.8360 C.ar    1  UNL1        0.1255
      9 C          -3.8330    2.3620   15.5750 C.ar    1  UNL1        0.0263
     10 C          -3.2760    3.4500   14.9240 C.ar    1  UNL1        0.0766
     11 N          -3.4910    5.6500   13.8900 N.pl3   1  UNL1        0.0809
     12 O          -4.2190    6.5820   13.5780 O.2     1  UNL1        0.0415
     13 O          -2.2780    5.6520   13.7190 O.co2   1  UNL1       -0.5760
@<TRIPOS>UNITY_ATOM_ATTR
11 1
charge 1
13 1
charge -1
@<TRIPOS>BOND
     1     1     3    1
     2     4     1    2
     3     5     2   ar
     4     6     1    2
     5     7     5   ar
     6     8     7   ar
     7     8     1    1
     8     9     8   ar
     9    10     9   ar
    10    10     2   ar
    11    11     2    1
    12    12    11    2
    13    13    11    1
