@<TRIPOS>MOLECULE
6RIG_K4N_A308
 11 11 0 0 0
SMALL
GASTEIGER

@<TRIPOS>ATOM
      1 S          -5.9360    0.9580   16.8310 S.O2    1  UNL1        0.0935
      2 O          -5.3830    1.0100   18.1490 O.2     1  UNL1       -0.1503
      3 O          -4.1390    5.8380   14.0410 O.3     1  UNL1       -0.2866
      4 N          -5.3380   -0.3240   16.0510 N.3     1  UNL1        0.0392
      5 C          -5.3790    2.3960   15.9800 C.ar    1  UNL1        0.1253
      6 O          -7.3730    0.9720   16.7110 O.2     1  UNL1       -0.1503
      7 C          -4.0470    2.5380   15.6250 C.ar    1  UNL1        0.0233
      8 C          -3.6230    3.6820   14.9770 C.ar    1  UNL1        0.0434
      9 C          -4.5300    4.7030   14.6900 C.ar    1  UNL1        0.1958
     10 C          -5.8570    4.5630   15.0500 C.ar    1  UNL1        0.0434
     11 C          -6.2800    3.4230   15.6960 C.ar    1  UNL1        0.0233
@<TRIPOS>BOND
     1     2     1    2
     2     1     4    1
     3     5     1    1
     4     6     1    2
     5     7     5   ar
     6     8     7   ar
     7     9     8   ar
     8     9     3    1
     9    10     9   ar
    10    11    10   ar
    11    11     5   ar
