@<TRIPOS>MOLECULE
6RJJ_K5W_A305
 12 12 0 0 0
SMALL
GASTEIGER

@<TRIPOS>ATOM
      1 O          -7.4300    0.9800   16.7600 O.2     1  UNL1       -0.1502
      2 C          -4.7570    2.1170   14.6190 C.ar    1  UNL1        0.0225
      3 C          -4.4410    3.1870   13.7920 C.ar    1  UNL1        0.0038
      4 C          -4.8690    4.4740   14.0830 C.ar    1  UNL1        0.0320
      5 C          -5.6230    4.6650   15.2250 C.ar    1  UNL1        0.1687
      6 C          -5.9520    3.6160   16.0260 C.ar    1  UNL1        0.1859
      7 N          -5.3980   -0.3400   16.1690 N.3     1  UNL1        0.0393
      8 C          -5.5220    2.3250   15.7780 C.ar    1  UNL1        0.1546
      9 O          -5.3750    1.2340   18.0880 O.2     1  UNL1       -0.1502
     10 F          -6.0120    5.9090   15.5720 F       1  UNL1       -0.2018
     11 F          -6.7160    3.8780   17.1190 F       1  UNL1       -0.2004
     12 S          -5.9900    0.9760   16.8270 S.O2    1  UNL1        0.0957
@<TRIPOS>BOND
     1     3     2   ar
     2     4     3   ar
     3     5     4   ar
     4     6     5   ar
     5     8     6   ar
     6     8     2   ar
     7    10     5    1
     8    11     6    1
     9    12     8    1
    10    12     1    2
    11    12     7    1
    12    12     9    2
