@<TRIPOS>MOLECULE
6RJJ_K5W_A305
 12 12 0 0 0
SMALL
GASTEIGER

@<TRIPOS>ATOM
      1 O          -7.4310    0.9790   16.7750 O.2     1  UNL1       -0.1502
      2 C          -4.7540    2.1160   14.6390 C.ar    1  UNL1        0.0225
      3 C          -4.4360    3.1850   13.8130 C.ar    1  UNL1        0.0038
      4 C          -4.8650    4.4720   14.1030 C.ar    1  UNL1        0.0320
      5 C          -5.6210    4.6640   15.2430 C.ar    1  UNL1        0.1687
      6 C          -5.9510    3.6150   16.0440 C.ar    1  UNL1        0.1859
      7 N          -5.3970   -0.3410   16.1880 N.3     1  UNL1        0.0393
      8 C          -5.5210    2.3230   15.7970 C.ar    1  UNL1        0.1546
      9 O          -5.3780    1.2330   18.1070 O.2     1  UNL1       -0.1502
     10 F          -6.0110    5.9080   15.5890 F       1  UNL1       -0.2018
     11 F          -6.7170    3.8770   17.1350 F       1  UNL1       -0.2004
     12 S          -5.9910    0.9750   16.8450 S.O2    1  UNL1        0.0957
@<TRIPOS>BOND
     1     3     2   ar
     2     4     3   ar
     3     5     4   ar
     4     6     5   ar
     5     8     6   ar
     6     8     2   ar
     7    10     5    1
     8    11     6    1
     9    12     8    1
    10    12     1    2
    11    12     7    1
    12    12     9    2
