@<TRIPOS>MOLECULE
6RNP_KBB_A303
 12 12 0 0 0
SMALL
GASTEIGER

@<TRIPOS>ATOM
      1 C          -3.2440    3.5180   14.9530 C.ar    1  UNL1        0.0333
      2 C          -3.8130    2.4740   15.6420 C.ar    1  UNL1        0.1589
      3 C          -4.0580    4.5180   14.4550 C.ar    1  UNL1        0.0320
      4 N          -5.3990   -0.3250   16.0700 N.3     1  UNL1        0.0393
      5 C          -5.1790    2.3750   15.8500 C.ar    1  UNL1        0.1545
      6 O          -7.3070    1.1250   16.5820 O.2     1  UNL1       -0.1502
      7 C          -6.0040    3.3830   15.3610 C.ar    1  UNL1        0.0519
      8 C          -5.4030    4.4260   14.6780 C.ar    1  UNL1        0.1416
      9 F          -6.1900    5.4290   14.2200 F       1  UNL1       -0.2041
     10 F          -3.0110    1.5050   16.1340 F       1  UNL1       -0.2028
     11 O          -5.3470    1.1280   18.0870 O.2     1  UNL1       -0.1502
     12 S          -5.8930    1.0130   16.7610 S.O2    1  UNL1        0.0957
@<TRIPOS>BOND
     1     2     1   ar
     2     3     1   ar
     3     5     2   ar
     4     7     5   ar
     5     8     7   ar
     6     8     3   ar
     7     9     8    1
     8    10     2    1
     9    12     6    2
    10    12     5    1
    11    12     4    1
    12    12    11    2
