@<TRIPOS>MOLECULE
6RNP_KBB_A303
 12 12 0 0 0
SMALL
GASTEIGER

@<TRIPOS>ATOM
      1 C          -3.2530    3.5250   14.9380 C.ar    1  UNL1        0.0333
      2 C          -3.8200    2.4810   15.6270 C.ar    1  UNL1        0.1589
      3 C          -4.0680    4.5240   14.4410 C.ar    1  UNL1        0.0320
      4 N          -5.4030   -0.3200   16.0570 N.3     1  UNL1        0.0393
      5 C          -5.1860    2.3800   15.8370 C.ar    1  UNL1        0.1545
      6 O          -7.3130    1.1290   16.5700 O.2     1  UNL1       -0.1502
      7 C          -6.0120    3.3880   15.3480 C.ar    1  UNL1        0.0519
      8 C          -5.4130    4.4310   14.6650 C.ar    1  UNL1        0.1416
      9 F          -6.2010    5.4330   14.2070 F       1  UNL1       -0.2041
     10 F          -3.0170    1.5120   16.1190 F       1  UNL1       -0.2028
     11 O          -5.3510    1.1330   18.0740 O.2     1  UNL1       -0.1502
     12 S          -5.8980    1.0180   16.7480 S.O2    1  UNL1        0.0957
@<TRIPOS>BOND
     1     2     1   ar
     2     3     1   ar
     3     5     2   ar
     4     7     5   ar
     5     8     7   ar
     6     8     3   ar
     7     9     8    1
     8    10     2    1
     9    12     6    2
    10    12     5    1
    11    12     4    1
    12    12    11    2
