@<TRIPOS>MOLECULE
6RQI_FBW_A307
 11 11 0 0 0
SMALL
GASTEIGER

@<TRIPOS>ATOM
      1 C          -4.1630    4.5940   14.5340 C.ar    1  UNL1        0.0297
      2 C          -5.4820    4.5150   14.8540 C.ar    1  UNL1        0.1415
      3 C          -6.0570    3.4340   15.5020 C.ar    1  UNL1        0.0496
      4 C          -5.2270    2.3780   15.8290 C.ar    1  UNL1        0.1273
      5 C          -3.8650    2.4200   15.5280 C.ar    1  UNL1        0.0202
      6 C          -3.3510    3.5320   14.8790 C.ar    1  UNL1        0.0037
      7 S          -5.8770    0.9930   16.7410 S.O2    1  UNL1        0.0936
      8 N          -5.3440   -0.3340   16.0440 N.3     1  UNL1        0.0392
      9 O          -5.3360    1.1060   18.0630 O.2     1  UNL1       -0.1503
     10 O          -7.2990    1.0590   16.5880 O.2     1  UNL1       -0.1503
     11 F          -6.2770    5.5550   14.5120 F       1  UNL1       -0.2041
@<TRIPOS>BOND
     1     2     1   ar
     2     3     2   ar
     3     4     3   ar
     4     5     4   ar
     5     6     5   ar
     6     6     1   ar
     7     7     4    1
     8     7     8    1
     9     9     7    2
    10    10     7    2
    11    11     2    1
