@<TRIPOS>MOLECULE
6RS5_KGK_A306
 15 15 0 0 0
SMALL
GASTEIGER

@<TRIPOS>ATOM
      1 C          -5.5200    2.2190   15.7290 C.ar    1  UNL1        0.1840
      2 C          -5.8910    3.5260   16.0570 C.ar    1  UNL1        0.1880
      3 C          -5.5100    4.5740   15.2390 C.ar    1  UNL1        0.1670
      4 N          -5.4600   -0.4910   16.2920 N.3     1  UNL1        0.0394
      5 C          -4.3440    5.5610   13.2230 C.3     1  UNL1        0.0359
      6 O          -7.4360    0.8930   16.7790 O.2     1  UNL1       -0.1502
      7 C          -4.7670    4.4010   14.0950 C.ar    1  UNL1        0.0376
      8 C          -4.4150    3.0980   13.7800 C.ar    1  UNL1        0.1670
      9 C          -4.7810    2.0250   14.5590 C.ar    1  UNL1        0.1880
     10 F          -3.6850    2.8660   12.6730 F       1  UNL1       -0.2020
     11 F          -4.4290    0.8000   14.1300 F       1  UNL1       -0.2003
     12 F          -6.5810    3.8060   17.1820 F       1  UNL1       -0.2003
     13 F          -5.8450    5.8250   15.6160 F       1  UNL1       -0.2020
     14 O          -5.3610    1.2170   18.0820 O.2     1  UNL1       -0.1502
     15 S          -5.9940    0.8970   16.8360 S.O2    1  UNL1        0.0980
@<TRIPOS>BOND
     1     2     1   ar
     2     3     2   ar
     3     7     3   ar
     4     7     5    1
     5     8     7   ar
     6     9     1   ar
     7     9     8   ar
     8    10     8    1
     9    11     9    1
    10    12     2    1
    11    13     3    1
    12    15     4    1
    13    15     1    1
    14    15     6    2
    15    15    14    2
