@<TRIPOS>MOLECULE
6YKH_OWK_A302
 35 54 0 0 0
SMALL
GASTEIGER

@<TRIPOS>ATOM
      1  C2        -2.2960    2.4950   10.6790 C.3   302  OWK302      0.0000
      2  C4        -4.5390    3.7030   13.6120 C.3   302  OWK302      0.0000
      3  C1        -3.0680    4.3110   13.2910 C.3   302  OWK302      0.0000
      4  C14       -3.1170    1.5000   11.7510 C.3   302  OWK302      0.0000
      5  O4         1.6340    5.7900    9.7310 O.2   302  OWK302      0.0000
      6  N1        -5.2750   -0.4070   16.0340 N.3   302  OWK302      0.0000
      7  N2         0.9340    5.3210   12.1080 N.3   302  OWK302      0.0000
      8  B8        -4.9540    5.3590   11.4730 B     302  OWK302      0.0000
      9  B2        -4.2900    6.7050   12.4070 B     302  OWK302      0.0000
     10  B3        -5.8740    5.9860   12.8090 B     302  OWK302      0.0000
     11  B9        -3.2230    5.3540   11.9240 B     302  OWK302      0.0000
     12  B1        -3.1200    6.0360   13.5510 B     302  OWK302      0.0000
     13  B7        -5.7510    4.1960   12.5380 B     302  OWK302      0.0000
     14  B6        -5.6140    4.9370   14.1930 B     302  OWK302      0.0000
     15  B5        -3.9400    4.9870   14.6680 B     302  OWK302      0.0000
     16  B4        -4.7700    6.4680   14.1430 B     302  OWK302      0.0000
     17  C5        -4.7910    2.3670   14.3430 C.3   302  OWK302      0.0000
     18  C6        -4.6930    2.4280   15.8730 C.3   302  OWK302      0.0000
     19  S1        -5.6200    1.0480   16.6380 S.O2  302  OWK302      0.0000
     20  O1        -7.0630    1.3110   16.3640 O.2   302  OWK302      0.0000
     21  O2        -5.2990    1.1220   18.0660 O.2   302  OWK302      0.0000
     22  S2         1.2290    4.6860   10.6900 S.O2  302  OWK302      0.0000
     23  O3         2.1800    3.5320   10.7560 O.2   302  OWK302      0.0000
     24  C8        -0.3510    4.0160   10.0640 C.3   302  OWK302      0.0000
     25  C7        -0.9370    3.0890   11.0890 C.3   302  OWK302      0.0000
     26  B15       -2.3800    1.9780    8.9860 B     302  OWK302      0.0000
     27  B13       -2.2000    0.8290   10.3440 B     302  OWK302      0.0000
     28  B16       -4.0830    2.0430    8.5980 B     302  OWK302      0.0000
     29  B17       -4.9950    0.9230    9.6280 B     302  OWK302      0.0000
     30  B11       -3.7950    0.1810   10.7430 B     302  OWK302      0.0000
     31  B12       -3.3550    0.4920    9.0590 B     302  OWK302      0.0000
     32  B18       -5.0140    2.6920    9.9550 B     302  OWK302      0.0000
     33 CO1        -3.9580    3.4460   11.6030 Co.oh 302  OWK302      0.0000
     34  B10       -4.8300    1.5090   11.2970 B     302  OWK302      0.0000
     35  B20       -3.3920    3.2610    9.6420 B     302  OWK302      0.0000
@<TRIPOS>BOND
     1    28    26    1
     2    28    29    1
     3    28    35    1
     4    28    32    1
     5    26    31    1
     6    26    35    1
     7    26    27    1
     8    31    29    1
     9    31    27    1
    10    31    30    1
    11    29    34    1
    12    35    32    1
    13    35     1    1
    14     5    22    2
    15    32    34    1
    16    32    33    1
    17    24    22    1
    18    24    25    1
    19    27     1    1
    20    27    30    1
    21     1    25    1
    22     1     4    1
    23    22    23    2
    24    22     7    1
    25    30    34    1
    26    30     4    1
    27    34     4    1
    28     8    11    1
    29     8     9    1
    30     8    13    1
    31     8    10    1
    32    33    13    1
    33    11     9    1
    34    11     3    1
    35    11    12    1
    36     9    10    1
    37     9    12    1
    38    13     2    1
    39    10    16    1
    40    10    14    1
    41     3    12    1
    42     3     2    1
    43     3    15    1
    44    12    15    1
    45     2    14    1
    46     2    17    1
    47    16    14    1
    48    16    15    1
    49    14    15    1
    50    17    18    1
    51    18    19    1
    52     6    19    1
    53    20    19    2
    54    19    21    2
