@<TRIPOS>MOLECULE
6YZN_Q3Q_A302
 20 30 0 0 0
SMALL
GASTEIGER

@<TRIPOS>ATOM
      1  C1        -4.6120    4.3500   14.9130 C.3   302  Q3Q302      0.0000
      2  C6        -4.9650    2.2850   16.0610 C.3   302  Q3Q302      0.0000
      3  O9        -5.3620    1.0020   18.1260 O.2   302  Q3Q302      0.0000
      4  C3        -4.9220    7.4260   12.6050 C.3   302  Q3Q302      0.0000
      5  S8        -5.8300    0.9320   16.7610 S.O2  302  Q3Q302      0.0000
      6  O5        -7.2360    1.0800   16.5510 O.2   302  Q3Q302      0.0000
      7  N1        -5.3200   -0.3750   16.0420 N.3   302  Q3Q302      0.0000
      8  C2        -5.6590    3.4300   15.5200 C.3   302  Q3Q302      0.0000
      9  C4        -5.2920    5.6140   14.5060 C.3   302  Q3Q302      0.0000
     10  C7        -4.3640    6.6920   14.0080 C.3   302  Q3Q302      0.0000
     11  B15       -3.6900    7.7000   15.1020 B     302  Q3Q302      0.0000
     12  B16       -3.7730    9.2880   14.3090 B     302  Q3Q302      0.0000
     13  B19       -4.5980    9.0710   12.7540 B     302  Q3Q302      0.0000
     14  B14       -5.1720    8.1800   14.1740 B     302  Q3Q302      0.0000
     15  B10       -3.6110    7.9600   11.7230 B     302  Q3Q302      0.0000
     16  B11       -2.8420    9.1730   12.8160 B     302  Q3Q302      0.0000
     17  B17       -2.2520    8.3600   14.3050 B     302  Q3Q302      0.0000
     18  B13       -2.6630    6.6230   14.1190 B     302  Q3Q302      0.0000
     19  B18       -2.1490    7.5230   12.6880 B     302  Q3Q302      0.0000
     20  B12       -3.4860    6.4140   12.5020 B     302  Q3Q302      0.0000
@<TRIPOS>BOND
     1    15    20    1
     2    15     4    1
     3    15    19    1
     4    20    19    1
     5    20    18    1
     6     4    13    1
     7     4    10    1
     8     4    14    1
     9    19    16    1
    10    19    18    1
    11    13    16    1
    12    13    14    1
    13    13    12    1
    14    16    17    1
    15    16    12    1
    16    10    14    1
    17    10     9    1
    18    10    11    1
    19    18    17    1
    20    18    11    1
    21    17    12    1
    22    17    11    1
    23    12    11    1
    24     9     1    1
    25     1     8    1
    26     8     2    1
    27     7     5    1
    28     2     5    1
    29     6     5    2
    30     5     3    2
