@<TRIPOS>MOLECULE
6YZX_Q3H_A302
 21 30 0 0 0
SMALL
GASTEIGER

@<TRIPOS>ATOM
      1  C2        -5.4040    4.5340   15.1920 C.3   302  Q3H302      0.0000
      2  C3        -2.0890    9.1370   14.1200 C.3   302  Q3H302      0.0000
      3  C7        -1.7110    7.6490   13.3930 C.3   302  Q3H302      0.0000
      4  C6        -5.9110    3.1260   14.9840 C.3   302  Q3H302      0.0000
      5  C10       -2.3820    6.2850   13.7700 C.3   302  Q3H302      0.0000
      6  O11       -7.3380    1.0160   16.6080 O.2   302  Q3H302      0.0000
      7  O14       -5.4660    1.0450   18.1410 O.2   302  Q3H302      0.0000
      8  S8        -5.8810    0.9100   16.7770 S.O2  302  Q3H302      0.0000
      9  N13       -5.2850   -0.4150   16.1070 N.3   302  Q3H302      0.0000
     10  C         -5.1730    2.2030   15.9460 C.3   302  Q3H302      0.0000
     11  C1        -5.0000    5.4680   14.0900 C.3   302  Q3H302      0.0000
     12  C9        -3.7230    6.1910   14.4990 C.3   302  Q3H302      0.0000
     13  B5        -1.3300    7.9410   11.7470 B     302  Q3H302      0.0000
     14  B6        -1.4760    9.7040   11.4640 B     302  Q3H302      0.0000
     15  B9        -2.0030   10.4390   13.0070 B     302  Q3H302      0.0000
     16  B1        -0.7470   10.1690   14.2440 B     302  Q3H302      0.0000
     17  B10       -0.2800   10.5110   12.5490 B     302  Q3H302      0.0000
     18  B7         0.1400    8.9530   11.7640 B     302  Q3H302      0.0000
     19  B3        -0.0640    7.6570   12.9850 B     302  Q3H302      0.0000
     20  B8         0.5740    9.2350   13.4840 B     302  Q3H302      0.0000
     21  B2        -0.6130    8.4060   14.5280 B     302  Q3H302      0.0000
@<TRIPOS>BOND
     1    14    13    1
     2    14    17    1
     3    14    15    1
     4    13    18    1
     5    13    19    1
     6    13     3    1
     7    18    17    1
     8    18    19    1
     9    18    20    1
    10    17    15    1
    11    19     3    1
    12    19    20    1
    13    15     2    1
    14    15    16    1
    15     3     5    1
    16     3     2    1
    17    20    16    1
    18    20    21    1
    19     5    12    1
    20    11    12    1
    21    11     1    1
    22     2    16    1
    23     2    21    1
    24    16    21    1
    25     4     1    1
    26     4    10    1
    27    10     8    1
    28     9     8    1
    29     6     8    2
    30     8     7    2
