9W12_A1ET8_A701
     RDKit          3D

 24 25  0  0  0  0  0  0  0  0999 V2000
   26.7910   -9.7910    8.3280 C   0  0  0  0  0  0  0  0  0  0  0  0
   25.7910  -10.0680    9.3550 C   0  0  0  0  0  0  0  0  0  0  0  0
   26.2260  -11.2970   10.0810 C   0  0  0  0  0  0  0  0  0  0  0  0
   27.4540  -11.0650   10.8910 O   0  0  0  0  0  0  0  0  0  0  0  0
   25.0850  -11.8350   10.9920 C   0  0  0  0  0  0  0  0  0  0  0  0
   23.8150  -12.2640   10.2760 C   0  0  0  0  0  0  0  0  0  0  0  0
   23.9770  -13.6540    9.6320 C   0  0  0  0  0  0  0  0  0  0  0  0
   22.8870  -13.8500    8.6490 C   0  0  0  0  0  0  0  0  0  0  0  0
   22.8310  -15.3200    8.2140 C   0  0  0  0  0  0  0  0  0  0  0  0
   23.0040  -13.0010    7.5410 O   0  0  0  0  0  0  0  0  0  0  0  0
   21.9570  -12.6640    6.8370 C   0  0  0  0  0  0  0  0  0  0  0  0
   20.7960  -12.9720    7.1790 O   0  0  0  0  0  0  0  0  0  0  0  0
   22.2310  -11.9820    5.5810 C   0  0  0  0  0  0  0  0  0  0  0  0
   21.2460  -11.7710    4.6730 C   0  0  0  0  0  0  0  0  0  0  0  0
   19.9760  -12.1220    5.0360 O   0  0  0  0  0  0  0  0  0  0  0  0
   21.4540  -11.1680    3.4180 C   0  0  0  0  0  0  0  0  0  0  0  0
   22.6770  -10.7860    3.0580 C   0  0  0  0  0  0  0  0  0  0  0  0
   22.8560  -10.2040    1.8350 O   0  0  0  0  0  0  0  0  0  0  0  0
   23.7010  -10.9900    3.9480 C   0  0  0  0  0  0  0  0  0  0  0  0
   23.5130  -11.5880    5.2170 C   0  0  0  0  0  0  0  0  0  0  0  0
   24.6750  -11.7690    6.0330 C   0  0  0  0  0  0  0  0  0  0  0  0
   25.3880  -10.5710    6.3590 C   0  0  0  0  0  0  0  0  0  0  0  0
   26.6550  -10.5800    6.9990 C   0  0  0  0  0  0  0  0  0  0  0  0
   27.4910   -9.7630    6.1610 O   0  0  0  0  0  0  0  0  0  0  0  0
  2  1  1  0
  3  2  1  0
  3  4  1  0
  5  3  1  0
  6  5  1  0
  7  6  1  0
  8  7  1  0
  8  9  1  0
 10  8  1  0
 11 10  1  0
 12 11  2  0
 13 11  1  0
 14 13  2  0
 15 14  1  0
 16 14  1  0
 17 16  2  0
 18 17  1  0
 19 17  1  0
 20 19  2  0
 20 13  1  0
 21 20  1  0
 22 21  2  3
 23 22  1  0
 23  1  1  0
 23 24  1  0
M  END
>  <_TriposChargeType>  (1) 
GASTEIGER

$$$$
