@<TRIPOS>MOLECULE
8F0P_X7L_A1610
 37 41 0 0 0
SMALL
GASTEIGER

@<TRIPOS>ATOM
      1 C          90.6970  134.9610  138.7930 C.ar    1  UNL1        0.0471
      2 C          90.5200  136.5000  136.4970 C.ar    1  UNL1        0.0239
      3 C          89.4660  136.4800  137.4190 C.ar    1  UNL1        0.0176
      4 C          91.6630  135.7340  136.7320 C.ar    1  UNL1        0.1545
      5 C          91.7520  134.9770  137.8810 C.ar    1  UNL1        0.1602
      6 C          87.2690  138.7870  140.6190 C.3     1  UNL1        0.0897
      7 C          86.7010  137.7270  142.7800 C.3     1  UNL1        0.0897
      8 C          86.3980  136.3690  140.6750 C.3     1  UNL1        0.0774
      9 C          84.9120  136.7200  140.5260 C.3     1  UNL1        0.0177
     10 C          84.2600  136.0680  139.3040 C.3     1  UNL1        0.0015
     11 C          84.8820  134.7190  138.9680 C.3     1  UNL1        0.0019
     12 C          86.3800  134.7990  138.6570 C.3     1  UNL1        0.0229
     13 C          87.0890  135.9860  139.3300 C.3     1  UNL1        0.1070
     14 C          89.5290  135.7120  138.5870 C.ar    1  UNL1        0.0676
     15 C          92.1780  133.6040  134.1000 C.ar    1  UNL1        0.2024
     16 C          91.5450  131.8340  132.9520 C.ar    1  UNL1        0.0895
     17 C          91.8790  131.2120  134.1540 C.ar    1  UNL1        0.0528
     18 C          91.7570  129.8270  134.3250 C.ar    1  UNL1        0.0450
     19 C          91.2880  129.0620  133.2600 C.ar    1  UNL1        0.1391
     20 C          90.9600  126.8200  132.5060 C.3     1  UNL1        0.2053
     21 C          91.2580  125.4230  133.0360 C.3     1  UNL1        0.0438
     22 C          90.7390  125.1660  134.4470 C.3     1  UNL1        0.0037
     23 C          90.7640  123.6430  134.5570 C.3     1  UNL1        0.0001
     24 C          90.6730  123.1020  133.1310 C.3     1  UNL1        0.0001
     25 C          90.5980  124.3190  132.2210 C.3     1  UNL1        0.0037
     26 C          90.9530  129.6600  132.0490 C.ar    1  UNL1        0.0385
     27 C          91.0730  131.0480  131.8860 C.ar    1  UNL1        0.0228
     28 F          92.8310  134.2300  138.1430 F       1  UNL1       -0.2027
     29 N          87.1520  137.4980  141.3700 N.3     1  UNL1       -0.2700
     30 N          88.5210  135.6570  139.5370 N.pl3   1  UNL1       -0.2379
     31 N          92.4010  135.0120  134.2230 N.pl3   1  UNL1       -0.0702
     32 N          91.7170  133.2040  132.9400 N.ar    1  UNL1       -0.2215
     33 O          94.1030  134.9700  136.0860 O.2     1  UNL1       -0.1482
     34 O          93.2330  137.1470  135.2360 O.2     1  UNL1       -0.1482
     35 O          91.2300  127.7340  133.5660 O.3     1  UNL1       -0.4754
     36 S          92.9880  135.7550  135.5830 S.O2    1  UNL1        0.0968
     37 S          92.4170  132.3960  135.2710 S.2     1  UNL1       -0.0483
@<TRIPOS>BOND
     1     3     2   ar
     2     4     2   ar
     3     5     4   ar
     4     5     1   ar
     5     9     8    1
     6    10     9    1
     7    11    10    1
     8    12    11    1
     9    13    12    1
    10    13     8    1
    11    14     1   ar
    12    14     3   ar
    13    17    16   ar
    14    18    17   ar
    15    19    18   ar
    16    21    20    1
    17    22    21    1
    18    23    22    1
    19    24    23    1
    20    25    24    1
    21    25    21    1
    22    26    19   ar
    23    27    26   ar
    24    27    16   ar
    25    28     5    1
    26     8    29    1
    27    29     7    1
    28    29     6    1
    29    13    30    1
    30    30    14    1
    31    31    15    1
    32    32    16   ar
    33    32    15   ar
    34    35    20    1
    35    35    19    1
    36    36    31    1
    37    36     4    1
    38    36    33    2
    39    36    34    2
    40    37    17   ar
    41    37    15   ar
