@<TRIPOS>MOLECULE
7W9T_9Z9_A2007
 39 44 0 0 0
SMALL
GASTEIGER

@<TRIPOS>ATOM
      1 C         124.0780  123.8750  109.7210 C.3     1  UNL1        0.0001
      2 C         122.5750  124.0410  109.9550 C.3     1  UNL1        0.0025
      3 C         122.3090  124.6140  111.3500 C.3     1  UNL1        0.0320
      4 C         122.6570  126.1290  111.1800 C.3     1  UNL1        0.1177
      5 C         122.5260  126.4370  109.6700 C.3     1  UNL1        0.0297
      6 C         121.9990  125.1510  109.0400 C.3     1  UNL1        0.0028
      7 C         122.4380  124.8590  107.6180 C.3     1  UNL1        0.0047
      8 C         121.7950  123.5280  107.2030 C.3     1  UNL1        0.0038
      9 C         122.1640  122.4010  108.1670 C.3     1  UNL1        0.0003
     10 C         121.8410  122.7490  109.6300 C.3     1  UNL1        0.0001
     11 C         122.1940  123.1460  105.7880 C.3     1  UNL1        0.0150
     12 C         123.5620  122.4620  105.8420 C.3     1  UNL1        0.0040
     13 C         122.2940  124.3240  104.8630 C.2     1  UNL1       -0.0467
     14 C         122.1790  125.5590  105.2500 C.2     1  UNL1       -0.0345
     15 C         121.9360  125.9660  106.6880 C.3     1  UNL1        0.0254
     16 C         122.5390  124.0490  103.3900 C.3     1  UNL1        0.0512
     17 C         121.4990  123.0310  102.9100 C.3     1  UNL1        0.1192
     18 C         121.5630  121.7820  103.7910 C.3     1  UNL1        0.0302
     19 C         121.1840  122.1490  105.2130 C.3     1  UNL1        0.0062
     20 O         121.7740  122.6720  101.5550 O.3     1  UNL1       -0.3559
     21 C         121.1210  123.5000  100.5910 C.3     1  UNL1        0.1422
     22 C         121.4850  123.0260   99.1810 C.3     1  UNL1        0.0371
     23 C         120.7860  123.9120   98.1490 C.3     1  UNL1        0.0618
     24 C         121.3310  125.3380   98.2480 C.3     1  UNL1        0.1448
     25 O         120.5990  126.1910   97.3680 O.3     1  UNL1       -0.3510
     26 C         121.0330  127.5520   97.3840 C.3     1  UNL1        0.1741
     27 C         121.0500  123.3660   96.7450 C.3     1  UNL1        0.1448
     28 O         120.3020  124.1200   95.7880 O.3     1  UNL1       -0.3510
     29 C         120.4770  123.6880   94.4400 C.3     1  UNL1        0.1741
     30 O         124.0500  126.2260  111.5460 O.3     1  UNL1       -0.3368
     31 C         124.2170  125.3460  112.6720 C.3     1  UNL1        0.1868
     32 C         123.3790  124.0960  112.3330 C.3     1  UNL1        0.0539
     33 C         122.7200  123.5380  113.5980 C.3     1  UNL1        0.0051
     34 C         125.6860  124.9610  112.8270 C.3     1  UNL1        0.0563
     35 C         126.4930  126.2070  113.2140 C.3     1  UNL1        0.0075
     36 C         125.8930  126.8170  114.4830 C.3     1  UNL1        0.0299
     37 C         124.4170  127.1490  114.2340 C.3     1  UNL1        0.1446
     38 O         123.7240  125.9570  113.8560 O.3     1  UNL1       -0.3343
     39 C         126.6490  128.0990  114.8400 C.3     1  UNL1        0.0026
@<TRIPOS>BOND
     1     2     1    1
     2     3     2    1
     3     3     4    1
     4     4     5    1
     5     6     2    1
     6     6     5    1
     7     7     6    1
     8     8     7    1
     9     8     9    1
    10    10     9    1
    11    10     2    1
    12    11     8    1
    13    11    12    1
    14    13    11    1
    15    14    13    2
    16     7    15    1
    17    15    14    1
    18    16    13    1
    19    17    16    1
    20    18    17    1
    21    19    18    1
    22    19    11    1
    23    17    20    1
    24    21    20    1
    25    22    21    1
    26    23    22    1
    27    24    23    1
    28    25    24    1
    29    26    25    1
    30    27    23    1
    31    28    27    1
    32    29    28    1
    33    30     4    1
    34    31    30    1
    35    32    31    1
    36    32     3    1
    37    32    33    1
    38    31    34    1
    39    35    34    1
    40    36    35    1
    41    37    36    1
    42    38    31    1
    43    38    37    1
    44    36    39    1
