@<TRIPOS>MOLECULE
7W9T_9Z9_A2007
 39 44 0 0 0
SMALL
GASTEIGER

@<TRIPOS>ATOM
      1 C         123.8240  123.9920  109.9540 C.3     1  UNL1        0.0001
      2 C         122.3220  124.1490  110.1990 C.3     1  UNL1        0.0025
      3 C         122.0640  124.7410  111.5870 C.3     1  UNL1        0.0320
      4 C         122.3980  126.2560  111.3920 C.3     1  UNL1        0.1177
      5 C         122.2510  126.5410  109.8790 C.3     1  UNL1        0.0297
      6 C         121.7290  125.2410  109.2730 C.3     1  UNL1        0.0028
      7 C         122.1580  124.9310  107.8510 C.3     1  UNL1        0.0047
      8 C         121.5230  123.5890  107.4620 C.3     1  UNL1        0.0038
      9 C         121.9090  122.4800  108.4390 C.3     1  UNL1        0.0003
     10 C         121.5950  122.8470  109.8990 C.3     1  UNL1        0.0001
     11 C         121.9120  123.1890  106.0490 C.3     1  UNL1        0.0150
     12 C         123.2860  122.5170  106.1010 C.3     1  UNL1        0.0040
     13 C         121.9940  124.3540  105.1060 C.2     1  UNL1       -0.0467
     14 C         121.8730  125.5940  105.4760 C.2     1  UNL1       -0.0345
     15 C         121.6390  126.0210  106.9090 C.3     1  UNL1        0.0254
     16 C         122.2290  124.0590  103.6350 C.3     1  UNL1        0.0512
     17 C         121.1930  123.0260  103.1790 C.3     1  UNL1        0.1192
     18 C         121.2750  121.7900  104.0780 C.3     1  UNL1        0.0302
     19 C         120.9050  122.1760  105.4980 C.3     1  UNL1        0.0062
     20 O         121.4590  122.6480  101.8270 O.3     1  UNL1       -0.3559
     21 C         120.7910  123.4570  100.8570 C.3     1  UNL1        0.1422
     22 C         121.1470  122.9650   99.4510 C.3     1  UNL1        0.0371
     23 C         120.4320  123.8300   98.4120 C.3     1  UNL1        0.0618
     24 C         120.9670  125.2620   98.4850 C.3     1  UNL1        0.1448
     25 O         120.2190  126.0950   97.5990 O.3     1  UNL1       -0.3510
     26 C         120.6430  127.4600   97.5910 C.3     1  UNL1        0.1741
     27 C         120.6880  123.2650   97.0140 C.3     1  UNL1        0.1448
     28 O         119.9260  123.9990   96.0530 O.3     1  UNL1       -0.3510
     29 C         120.0920  123.5480   94.7100 C.3     1  UNL1        0.1741
     30 O         123.7930  126.3700  111.7440 O.3     1  UNL1       -0.3368
     31 C         123.9770  125.5080  112.8810 C.3     1  UNL1        0.1868
     32 C         123.1460  124.2460  112.5690 C.3     1  UNL1        0.0539
     33 C         122.5030  123.7020  113.8480 C.3     1  UNL1        0.0051
     34 C         125.4510  125.1370  113.0300 C.3     1  UNL1        0.0563
     35 C         126.2510  126.3950  113.3910 C.3     1  UNL1        0.0075
     36 C         125.6570  127.0190  114.6550 C.3     1  UNL1        0.0299
     37 C         124.1760  127.3360  114.4150 C.3     1  UNL1        0.1446
     38 O         123.4890  126.1320  114.0610 O.3     1  UNL1       -0.3343
     39 C         126.4060  128.3120  114.9870 C.3     1  UNL1        0.0026
@<TRIPOS>BOND
     1     2     1    1
     2     3     2    1
     3     3     4    1
     4     4     5    1
     5     6     2    1
     6     6     5    1
     7     7     6    1
     8     8     7    1
     9     8     9    1
    10    10     9    1
    11    10     2    1
    12    11     8    1
    13    11    12    1
    14    13    11    1
    15    14    13    2
    16     7    15    1
    17    15    14    1
    18    16    13    1
    19    17    16    1
    20    18    17    1
    21    19    18    1
    22    19    11    1
    23    17    20    1
    24    21    20    1
    25    22    21    1
    26    23    22    1
    27    24    23    1
    28    25    24    1
    29    26    25    1
    30    27    23    1
    31    28    27    1
    32    29    28    1
    33    30     4    1
    34    31    30    1
    35    32     3    1
    36    32    31    1
    37    32    33    1
    38    31    34    1
    39    35    34    1
    40    36    35    1
    41    37    36    1
    42    38    37    1
    43    38    31    1
    44    36    39    1
