@<TRIPOS>MOLECULE
8G1A_9Z9_A2009
 39 44 0 0 0
SMALL
GASTEIGER

@<TRIPOS>ATOM
      1 C         123.0850  123.5480  109.8810 C.3     1  UNL1        0.0001
      2 C         122.5350  124.9630  109.6720 C.3     1  UNL1        0.0025
      3 C         122.7260  125.8510  110.9320 C.3     1  UNL1        0.0320
      4 C         124.1970  126.3070  110.8410 C.3     1  UNL1        0.1177
      5 C         124.6950  126.0100  109.4250 C.3     1  UNL1        0.0297
      6 C         123.3870  125.7610  108.6630 C.3     1  UNL1        0.0028
      7 C         123.4330  125.1660  107.2560 C.3     1  UNL1        0.0047
      8 C         122.0080  124.9250  106.7210 C.3     1  UNL1        0.0038
      9 C         121.0840  124.2470  107.7470 C.3     1  UNL1        0.0003
     10 C         121.1140  124.9120  109.1240 C.3     1  UNL1        0.0001
     11 C         122.0220  124.1990  105.3440 C.3     1  UNL1        0.0150
     12 C         122.3890  122.7080  105.4770 C.3     1  UNL1        0.0040
     13 C         123.0510  124.8540  104.4290 C.2     1  UNL1       -0.0467
     14 C         123.9470  125.7310  104.8600 C.2     1  UNL1       -0.0345
     15 C         124.1770  126.0880  106.2950 C.3     1  UNL1        0.0254
     16 C         123.0030  124.4420  102.9720 C.3     1  UNL1        0.0512
     17 C         121.6140  124.6180  102.3860 C.3     1  UNL1        0.1192
     18 C         120.6050  123.8690  103.2210 C.3     1  UNL1        0.0302
     19 C         120.6350  124.3370  104.6770 C.3     1  UNL1        0.0062
     20 O         121.6130  124.1000  101.0600 O.3     1  UNL1       -0.3559
     21 C         122.3300  124.8890  100.1150 C.3     1  UNL1        0.1422
     22 C         122.2370  124.2350   98.7690 C.3     1  UNL1        0.0371
     23 C         122.8620  125.0750   97.6490 C.3     1  UNL1        0.0618
     24 C         124.3480  125.3010   97.8740 C.3     1  UNL1        0.1448
     25 O         124.8470  126.1720   96.8810 O.3     1  UNL1       -0.3510
     26 C         126.2220  126.4550   97.0560 C.3     1  UNL1        0.1741
     27 C         122.6160  124.4310   96.2940 C.3     1  UNL1        0.1448
     28 O         123.0610  125.2980   95.2730 O.3     1  UNL1       -0.3510
     29 C         122.8520  124.7620   93.9810 C.3     1  UNL1        0.1741
     30 O         124.8650  125.5500  111.8650 O.3     1  UNL1       -0.3368
     31 C         123.9700  125.5770  112.9690 C.3     1  UNL1        0.1868
     32 C         122.6130  125.2570  112.3460 C.3     1  UNL1        0.0539
     33 C         121.3930  125.7020  113.1420 C.3     1  UNL1        0.0051
     34 C         124.4580  124.5890  114.0100 C.3     1  UNL1        0.0563
     35 C         125.7380  125.0500  114.6830 C.3     1  UNL1        0.0075
     36 C         125.5540  126.4520  115.2530 C.3     1  UNL1        0.0299
     37 C         125.0970  127.3550  114.1200 C.3     1  UNL1        0.1446
     38 O         123.8850  126.8930  113.5180 O.3     1  UNL1       -0.3343
     39 C         126.8160  126.9850  115.9060 C.3     1  UNL1        0.0026
@<TRIPOS>BOND
     1     2     1    1
     2     3     2    1
     3     3     4    1
     4     4     5    1
     5     6     2    1
     6     6     5    1
     7     7     6    1
     8     8     7    1
     9     8     9    1
    10    10     9    1
    11    10     2    1
    12    11     8    1
    13    11    12    1
    14    13    11    1
    15    14    13    2
    16     7    15    1
    17    15    14    1
    18    16    13    1
    19    17    16    1
    20    18    17    1
    21    19    18    1
    22    19    11    1
    23    17    20    1
    24    21    20    1
    25    22    21    1
    26    23    22    1
    27    24    23    1
    28    25    24    1
    29    26    25    1
    30    27    23    1
    31    28    27    1
    32    29    28    1
    33    30     4    1
    34    31    30    1
    35    32    31    1
    36    32     3    1
    37    32    33    1
    38    31    34    1
    39    35    34    1
    40    36    35    1
    41    37    36    1
    42    38    37    1
    43    38    31    1
    44    36    39    1
