@<TRIPOS>MOLECULE
8I5G_9Z9_A2003
 39 44 0 0 0
SMALL
GASTEIGER

@<TRIPOS>ATOM
      1 C         123.6310  123.6320  109.9190 C.3     1  UNL1        0.0001
      2 C         122.5560  124.7120  109.7780 C.3     1  UNL1        0.0025
      3 C         122.4440  125.5700  111.0660 C.3     1  UNL1        0.0320
      4 C         123.6560  126.5190  110.9600 C.3     1  UNL1        0.1177
      5 C         124.1520  126.4830  109.5110 C.3     1  UNL1        0.0297
      6 C         122.9760  125.8150  108.7860 C.3     1  UNL1        0.0028
      7 C         123.1330  125.3620  107.3330 C.3     1  UNL1        0.0047
      8 C         121.8580  124.6350  106.8680 C.3     1  UNL1        0.0038
      9 C         121.4090  123.5580  107.8670 C.3     1  UNL1        0.0003
     10 C         121.2520  124.1010  109.2880 C.3     1  UNL1        0.0001
     11 C         121.9780  124.0840  105.4180 C.3     1  UNL1        0.0150
     12 C         122.8150  122.7940  105.3650 C.3     1  UNL1        0.0040
     13 C         122.6450  125.1130  104.5110 C.2     1  UNL1       -0.0467
     14 C         123.2130  126.2190  104.9680 C.2     1  UNL1       -0.0345
     15 C         123.3920  126.5530  106.4150 C.3     1  UNL1        0.0254
     16 C         122.6250  124.7930  103.0300 C.3     1  UNL1        0.0512
     17 C         121.2140  124.5270  102.5370 C.3     1  UNL1        0.1192
     18 C         120.5620  123.4510  103.3720 C.3     1  UNL1        0.0302
     19 C         120.5640  123.8130  104.8580 C.3     1  UNL1        0.0062
     20 O         121.2890  124.0480  101.1980 O.3     1  UNL1       -0.3559
     21 C         121.8480  124.9630  100.2620 C.3     1  UNL1        0.1422
     22 C         121.9060  124.2660   98.9360 C.3     1  UNL1        0.0371
     23 C         122.4310  125.1510   97.8050 C.3     1  UNL1        0.0618
     24 C         123.8330  125.6540   98.1120 C.3     1  UNL1        0.1448
     25 O         124.2090  126.6220   97.1550 O.3     1  UNL1       -0.3510
     26 C         125.5180  127.1150   97.3720 C.3     1  UNL1        0.1741
     27 C         122.3960  124.3840   96.4910 C.3     1  UNL1        0.1448
     28 O         122.6670  125.2600   95.4170 O.3     1  UNL1       -0.3510
     29 C         122.6510  124.5960   94.1680 C.3     1  UNL1        0.1741
     30 O         124.5970  125.9960  111.9150 O.3     1  UNL1       -0.3368
     31 C         123.8050  125.6600  113.0460 C.3     1  UNL1        0.1868
     32 C         122.6150  124.9160  112.4460 C.3     1  UNL1        0.0539
     33 C         121.3550  124.8510  113.3030 C.3     1  UNL1        0.0051
     34 C         124.6520  124.8530  114.0130 C.3     1  UNL1        0.0563
     35 C         125.7280  125.6960  114.6730 C.3     1  UNL1        0.0075
     36 C         125.1070  126.9260  115.3270 C.3     1  UNL1        0.0299
     37 C         124.3100  127.6610  114.2650 C.3     1  UNL1        0.1446
     38 O         123.3010  126.8370  113.6760 O.3     1  UNL1       -0.3343
     39 C         126.1470  127.8330  115.9590 C.3     1  UNL1        0.0026
@<TRIPOS>BOND
     1     2     1    1
     2     3     2    1
     3     3     4    1
     4     4     5    1
     5     6     2    1
     6     6     5    1
     7     7     6    1
     8     8     7    1
     9     8     9    1
    10    10     9    1
    11    10     2    1
    12    11     8    1
    13    11    12    1
    14    13    11    1
    15    14    13    2
    16    15    14    1
    17     7    15    1
    18    16    13    1
    19    17    16    1
    20    18    17    1
    21    19    18    1
    22    19    11    1
    23    17    20    1
    24    21    20    1
    25    22    21    1
    26    23    22    1
    27    24    23    1
    28    25    24    1
    29    26    25    1
    30    27    23    1
    31    28    27    1
    32    29    28    1
    33    30     4    1
    34    31    30    1
    35    32    31    1
    36    32     3    1
    37    32    33    1
    38    31    34    1
    39    35    34    1
    40    36    35    1
    41    37    36    1
    42    38    37    1
    43    38    31    1
    44    36    39    1
