@<TRIPOS>MOLECULE
8I5X_9Z9_A2006
 39 44 0 0 0
SMALL
GASTEIGER

@<TRIPOS>ATOM
      1 C         123.3180  123.7630  109.5860 C.3     1  UNL1        0.0001
      2 C         122.3130  124.9150  109.4990 C.3     1  UNL1        0.0025
      3 C         122.3170  125.7700  110.7970 C.3     1  UNL1        0.0320
      4 C         123.4950  126.7460  110.5890 C.3     1  UNL1        0.1177
      5 C         123.9810  126.5720  109.1540 C.3     1  UNL1        0.0297
      6 C         122.7420  125.9890  108.4840 C.3     1  UNL1        0.0028
      7 C         122.8160  125.5330  107.0320 C.3     1  UNL1        0.0047
      8 C         121.4660  124.9450  106.6080 C.3     1  UNL1        0.0038
      9 C         121.0590  123.8550  107.6010 C.3     1  UNL1        0.0003
     10 C         120.9610  124.3950  109.0340 C.3     1  UNL1        0.0001
     11 C         121.4020  124.4850  105.1220 C.3     1  UNL1        0.0150
     12 C         121.8220  123.0120  104.9620 C.3     1  UNL1        0.0040
     13 C         122.2880  125.3450  104.2310 C.2     1  UNL1       -0.0467
     14 C         123.0500  126.3260  104.6870 C.2     1  UNL1       -0.0345
     15 C         123.1630  126.6970  106.1270 C.3     1  UNL1        0.0254
     16 C         122.1740  125.0690  102.7480 C.3     1  UNL1        0.0512
     17 C         120.7430  125.2260  102.2690 C.3     1  UNL1        0.1192
     18 C         119.7950  124.4070  103.1110 C.3     1  UNL1        0.0302
     19 C         119.9620  124.6820  104.6060 C.3     1  UNL1        0.0062
     20 O         120.6410  124.7230  100.9390 O.3     1  UNL1       -0.3559
     21 C         121.3600  125.4520   99.9480 C.3     1  UNL1        0.1422
     22 C         121.3070  124.6600   98.6800 C.3     1  UNL1        0.0371
     23 C         122.4150  125.0370   97.6970 C.3     1  UNL1        0.0618
     24 C         123.7650  124.5030   98.1430 C.3     1  UNL1        0.1448
     25 O         124.7640  125.4530   97.8460 O.3     1  UNL1       -0.3510
     26 C         125.7760  125.4940   98.8340 C.3     1  UNL1        0.1741
     27 C         122.0770  124.5560   96.2960 C.3     1  UNL1        0.1448
     28 O         121.8820  125.6720   95.4540 O.3     1  UNL1       -0.3510
     29 C         123.0960  126.1230   94.8820 C.3     1  UNL1        0.1741
     30 O         124.4870  126.3550  111.5520 O.3     1  UNL1       -0.3368
     31 C         123.7540  125.9850  112.7060 C.3     1  UNL1        0.1868
     32 C         122.6120  125.1330  112.1650 C.3     1  UNL1        0.0539
     33 C         121.4080  124.9720  113.0810 C.3     1  UNL1        0.0051
     34 C         124.6920  125.3000  113.6670 C.3     1  UNL1        0.0563
     35 C         125.7390  126.2480  114.2210 C.3     1  UNL1        0.0075
     36 C         125.0750  127.4870  114.8110 C.3     1  UNL1        0.0299
     37 C         124.1990  128.0770  113.7280 C.3     1  UNL1        0.1446
     38 O         123.1970  127.1500  113.3050 O.3     1  UNL1       -0.3343
     39 C         126.0720  128.5110  115.3200 C.3     1  UNL1        0.0026
@<TRIPOS>BOND
     1     2     1    1
     2     3     2    1
     3     3     4    1
     4     4     5    1
     5     6     2    1
     6     6     5    1
     7     7     6    1
     8     8     7    1
     9     8     9    1
    10    10     9    1
    11    10     2    1
    12    11     8    1
    13    11    12    1
    14    13    11    1
    15    14    13    2
    16    15    14    1
    17     7    15    1
    18    16    13    1
    19    17    16    1
    20    18    17    1
    21    19    18    1
    22    19    11    1
    23    17    20    1
    24    21    20    1
    25    22    21    1
    26    23    22    1
    27    24    23    1
    28    25    24    1
    29    26    25    1
    30    27    23    1
    31    28    27    1
    32    29    28    1
    33    30     4    1
    34    31    30    1
    35    32    31    1
    36    32     3    1
    37    32    33    1
    38    31    34    1
    39    35    34    1
    40    36    35    1
    41    37    36    1
    42    38    37    1
    43    38    31    1
    44    36    39    1
