@<TRIPOS>MOLECULE
8I5Y_9Z9_A2005
 39 44 0 0 0
SMALL
GASTEIGER

@<TRIPOS>ATOM
      1 C         123.5950  123.3680  110.2020 C.3     1  UNL1        0.0001
      2 C         122.6480  124.5700  110.1490 C.3     1  UNL1        0.0025
      3 C         122.6700  125.3640  111.4830 C.3     1  UNL1        0.0320
      4 C         123.9310  126.2470  111.3620 C.3     1  UNL1        0.1177
      5 C         124.4060  126.1850  109.9100 C.3     1  UNL1        0.0297
      6 C         123.1610  125.6620  109.1860 C.3     1  UNL1        0.0028
      7 C         123.2560  125.2340  107.7210 C.3     1  UNL1        0.0047
      8 C         121.9030  124.6670  107.2500 C.3     1  UNL1        0.0038
      9 C         121.3410  123.6220  108.2280 C.3     1  UNL1        0.0003
     10 C         121.2720  124.1320  109.6680 C.3     1  UNL1        0.0001
     11 C         121.9510  124.1420  105.7860 C.3     1  UNL1        0.0150
     12 C         122.6230  122.7610  105.6930 C.3     1  UNL1        0.0040
     13 C         122.7340  125.1030  104.8990 C.2     1  UNL1       -0.0467
     14 C         123.4200  126.1310  105.3760 C.2     1  UNL1       -0.0345
     15 C         123.6520  126.4070  106.8280 C.3     1  UNL1        0.0254
     16 C         122.6810  124.8110  103.4140 C.3     1  UNL1        0.0512
     17 C         121.2520  124.7100  102.9120 C.3     1  UNL1        0.1192
     18 C         120.4720  123.7140  103.7360 C.3     1  UNL1        0.0302
     19 C         120.5140  124.0570  105.2260 C.3     1  UNL1        0.0062
     20 O         121.2770  124.2280  101.5740 O.3     1  UNL1       -0.3559
     21 C         121.9220  125.0840  100.6360 C.3     1  UNL1        0.1422
     22 C         121.8750  124.3960   99.3040 C.3     1  UNL1        0.0371
     23 C         122.4760  125.2260   98.1680 C.3     1  UNL1        0.0618
     24 C         123.9430  125.5270   98.4280 C.3     1  UNL1        0.1448
     25 O         124.4210  126.4350   97.4570 O.3     1  UNL1       -0.3510
     26 C         125.7880  126.7540   97.6420 C.3     1  UNL1        0.1741
     27 C         122.2850  124.5000   96.8460 C.3     1  UNL1        0.1448
     28 O         122.6110  125.3610   95.7750 O.3     1  UNL1       -0.3510
     29 C         122.4490  124.7320   94.5170 C.3     1  UNL1        0.1741
     30 O         124.8630  125.6760  112.3010 O.3     1  UNL1       -0.3368
     31 C         124.0750  125.3310  113.4310 C.3     1  UNL1        0.1868
     32 C         122.8690  124.6270  112.8180 C.3     1  UNL1        0.0539
     33 C         121.6300  124.5100  113.6990 C.3     1  UNL1        0.0051
     34 C         124.9120  124.4830  114.3710 C.3     1  UNL1        0.0563
     35 C         126.0100  125.2830  115.0470 C.3     1  UNL1        0.0075
     36 C         125.4180  126.5080  115.7360 C.3     1  UNL1        0.0299
     37 C         124.6330  127.2890  114.6990 C.3     1  UNL1        0.1446
     38 O         123.6020  126.5040  114.0940 O.3     1  UNL1       -0.3343
     39 C         126.4810  127.3740  116.3890 C.3     1  UNL1        0.0026
@<TRIPOS>BOND
     1     2     1    1
     2     3     2    1
     3     3     4    1
     4     4     5    1
     5     6     2    1
     6     6     5    1
     7     7     6    1
     8     8     7    1
     9     8     9    1
    10    10     9    1
    11    10     2    1
    12    11     8    1
    13    11    12    1
    14    13    11    1
    15    14    13    2
    16     7    15    1
    17    15    14    1
    18    16    13    1
    19    17    16    1
    20    18    17    1
    21    19    18    1
    22    19    11    1
    23    17    20    1
    24    21    20    1
    25    22    21    1
    26    23    22    1
    27    24    23    1
    28    25    24    1
    29    26    25    1
    30    27    23    1
    31    28    27    1
    32    29    28    1
    33    30     4    1
    34    31    30    1
    35    32    31    1
    36    32     3    1
    37    32    33    1
    38    31    34    1
    39    35    34    1
    40    36    35    1
    41    37    36    1
    42    38    31    1
    43    38    37    1
    44    36    39    1
