@<TRIPOS>MOLECULE
8J4F_9Z9_A2006
 39 44 0 0 0
SMALL
GASTEIGER

@<TRIPOS>ATOM
      1 C         123.4660  123.5940  109.3780 C.3     1  UNL1        0.0001
      2 C         122.4060  124.6980  109.3190 C.3     1  UNL1        0.0025
      3 C         122.4320  125.5850  110.5930 C.3     1  UNL1        0.0320
      4 C         123.6130  126.5470  110.3430 C.3     1  UNL1        0.1177
      5 C         124.0280  126.4020  108.8780 C.3     1  UNL1        0.0297
      6 C         122.7640  125.7760  108.2760 C.3     1  UNL1        0.0028
      7 C         122.7640  125.3080  106.8210 C.3     1  UNL1        0.0047
      8 C         121.4150  124.6410  106.4880 C.3     1  UNL1        0.0038
      9 C         121.0260  123.5800  107.5300 C.3     1  UNL1        0.0003
     10 C         121.0440  124.1170  108.9620 C.3     1  UNL1        0.0001
     11 C         121.3580  124.0970  105.0320 C.3     1  UNL1        0.0150
     12 C         122.1280  122.7720  104.8830 C.3     1  UNL1        0.0040
     13 C         121.9720  125.1050  104.0700 C.2     1  UNL1       -0.0467
     14 C         122.6130  126.1910  104.4690 C.2     1  UNL1       -0.0345
     15 C         122.9940  126.4900  105.8840 C.3     1  UNL1        0.0254
     16 C         121.7920  124.8000  102.5990 C.3     1  UNL1        0.0512
     17 C         120.3260  124.6250  102.2490 C.3     1  UNL1        0.1192
     18 C         119.7000  123.5710  103.1320 C.3     1  UNL1        0.0302
     19 C         119.8820  123.8950  104.6180 C.3     1  UNL1        0.0062
     20 O         120.2450  124.2170  100.8880 O.3     1  UNL1       -0.3559
     21 C         121.0220  125.0090   99.9920 C.3     1  UNL1        0.1422
     22 C         121.1460  124.2830   98.6860 C.3     1  UNL1        0.0371
     23 C         122.2830  124.8560   97.8390 C.3     1  UNL1        0.0618
     24 C         123.5550  124.9140   98.6680 C.3     1  UNL1        0.1448
     25 O         124.5930  125.4590   97.8830 O.3     1  UNL1       -0.3510
     26 C         125.8100  125.5580   98.5960 C.3     1  UNL1        0.1741
     27 C         122.5150  123.9870   96.6140 C.3     1  UNL1        0.1448
     28 O         121.8740  124.5630   95.4970 O.3     1  UNL1       -0.3510
     29 C         122.4890  125.7740   95.0980 C.3     1  UNL1        0.1741
     30 O         124.6190  126.1370  111.2890 O.3     1  UNL1       -0.3368
     31 C         123.8810  125.8650  112.4720 C.3     1  UNL1        0.1868
     32 C         122.7480  124.9760  111.9680 C.3     1  UNL1        0.0539
     33 C         121.5570  124.7960  112.9020 C.3     1  UNL1        0.0051
     34 C         124.7960  125.2330  113.5010 C.3     1  UNL1        0.0563
     35 C         125.7970  126.2180  114.0750 C.3     1  UNL1        0.0075
     36 C         125.0820  127.4590  114.5970 C.3     1  UNL1        0.0299
     37 C         124.2470  128.0170  113.4610 C.3     1  UNL1        0.1446
     38 O         123.2970  127.0640  112.9760 O.3     1  UNL1       -0.3343
     39 C         126.0450  128.5030  115.1330 C.3     1  UNL1        0.0026
@<TRIPOS>BOND
     1     2     1    1
     2     3     2    1
     3     3     4    1
     4     4     5    1
     5     6     2    1
     6     6     5    1
     7     7     6    1
     8     8     7    1
     9     8     9    1
    10    10     9    1
    11    10     2    1
    12    11     8    1
    13    11    12    1
    14    13    11    1
    15    14    13    2
    16     7    15    1
    17    15    14    1
    18    16    13    1
    19    17    16    1
    20    18    17    1
    21    19    18    1
    22    19    11    1
    23    17    20    1
    24    21    20    1
    25    22    21    1
    26    23    22    1
    27    24    23    1
    28    25    24    1
    29    26    25    1
    30    27    23    1
    31    28    27    1
    32    29    28    1
    33    30     4    1
    34    31    30    1
    35    32    31    1
    36    32     3    1
    37    32    33    1
    38    31    34    1
    39    35    34    1
    40    36    35    1
    41    37    36    1
    42    38    37    1
    43    38    31    1
    44    36    39    1
