@<TRIPOS>MOLECULE
9ITI_9Z9_A2024
 39 44 0 0 0
SMALL
GASTEIGER

@<TRIPOS>ATOM
      1 C         122.8500  124.6200  110.0010 C.3     1  UNL1        0.0001
      2 C         121.8690  125.7890  109.8900 C.3     1  UNL1        0.0025
      3 C         121.9120  126.6480  111.1560 C.3     1  UNL1        0.0320
      4 C         123.2290  127.4720  110.9790 C.3     1  UNL1        0.1177
      5 C         123.5290  127.4880  109.4600 C.3     1  UNL1        0.0297
      6 C         122.3370  126.7940  108.8070 C.3     1  UNL1        0.0028
      7 C         122.6150  126.0150  107.5360 C.3     1  UNL1        0.0047
      8 C         121.2850  125.4070  107.0700 C.3     1  UNL1        0.0038
      9 C         120.6520  124.5380  108.1550 C.3     1  UNL1        0.0003
     10 C         120.4910  125.2870  109.4890 C.3     1  UNL1        0.0001
     11 C         121.4700  124.5930  105.8010 C.3     1  UNL1        0.0150
     12 C         121.9630  123.1980  106.1930 C.3     1  UNL1        0.0040
     13 C         122.4670  125.1940  104.8530 C.2     1  UNL1       -0.0467
     14 C         123.1960  126.2340  105.1320 C.2     1  UNL1       -0.0345
     15 C         123.1360  126.9660  106.4550 C.3     1  UNL1        0.0254
     16 C         122.6250  124.5470  103.4880 C.3     1  UNL1        0.0512
     17 C         121.2370  124.4160  102.8520 C.3     1  UNL1        0.1192
     18 C         120.3120  123.6470  103.7970 C.3     1  UNL1        0.0302
     19 C         120.1280  124.4410  105.0780 C.3     1  UNL1        0.0062
     20 O         121.3430  123.7130  101.6140 O.3     1  UNL1       -0.3559
     21 C         121.5670  124.5580  100.4820 C.3     1  UNL1        0.1422
     22 C         121.6640  123.7010   99.2180 C.3     1  UNL1        0.0371
     23 C         121.9020  124.6040   98.0070 C.3     1  UNL1        0.0618
     24 C         123.2670  125.2850   98.1400 C.3     1  UNL1        0.1448
     25 O         123.4410  126.2170   97.0710 O.3     1  UNL1       -0.3510
     26 C         124.6910  126.9080   97.1020 C.3     1  UNL1        0.1741
     27 C         121.8760  123.7630   96.7300 C.3     1  UNL1        0.1448
     28 O         121.9820  124.6200   95.5910 O.3     1  UNL1       -0.3510
     29 C         121.9660  123.9320   94.3400 C.3     1  UNL1        0.1741
     30 O         124.2450  126.6820  111.6350 O.3     1  UNL1       -0.3368
     31 C         123.6200  126.1560  112.8180 C.3     1  UNL1        0.1868
     32 C         122.1980  125.7520  112.3790 C.3     1  UNL1        0.0539
     33 C         121.1940  126.0360  113.4990 C.3     1  UNL1        0.0051
     34 C         124.3810  124.9290  113.3140 C.3     1  UNL1        0.0563
     35 C         125.7710  125.3590  113.7960 C.3     1  UNL1        0.0075
     36 C         125.6170  126.4440  114.8620 C.3     1  UNL1        0.0299
     37 C         124.8280  127.6190  114.2780 C.3     1  UNL1        0.1446
     38 O         123.5530  127.1530  113.8290 O.3     1  UNL1       -0.3343
     39 C         127.0010  126.9290  115.3020 C.3     1  UNL1        0.0026
@<TRIPOS>BOND
     1     2     1    1
     2     3     2    1
     3     3     4    1
     4     4     5    1
     5     6     5    1
     6     6     2    1
     7     7     6    1
     8     8     7    1
     9     8     9    1
    10    10     9    1
    11    10     2    1
    12    11     8    1
    13    11    12    1
    14    13    11    1
    15    14    13    2
    16    15    14    1
    17     7    15    1
    18    16    13    1
    19    17    16    1
    20    18    17    1
    21    19    18    1
    22    19    11    1
    23    17    20    1
    24    21    20    1
    25    22    21    1
    26    23    22    1
    27    24    23    1
    28    25    24    1
    29    26    25    1
    30    27    23    1
    31    28    27    1
    32    29    28    1
    33    30     4    1
    34    31    30    1
    35    32    31    1
    36    32     3    1
    37    32    33    1
    38    31    34    1
    39    35    34    1
    40    36    35    1
    41    37    36    1
    42    38    37    1
    43    38    31    1
    44    36    39    1
