8S9B_LQO_A2003
     RDKit          3D

 18 18  0  0  0  0  0  0  0  0999 V2000
  124.5860  124.3030  108.0480 C   0  0  0  0  0  0  0  0  0  0  0  0
  123.1070  125.6590  109.4470 C   0  0  0  0  0  0  0  0  0  0  0  0
  123.6840  124.6270  106.8680 C   0  0  0  0  0  0  0  0  0  0  0  0
  122.3300  125.9350  108.4300 C   0  0  0  0  0  0  0  0  0  0  0  0
  121.6640  125.7560  105.9240 C   0  0  0  0  0  0  0  0  0  0  0  0
  122.6330  125.3870  107.0450 C   0  0  0  0  0  0  0  0  0  0  0  0
  121.8880  123.7540  102.6090 C   0  0  0  0  0  0  0  0  0  0  0  0
  118.9270  122.7850  100.2520 C   0  0  0  0  0  0  0  0  0  0  0  0
  124.3210  124.7750  109.2400 C   0  0  0  0  0  0  0  0  0  0  0  0
  119.9290  123.6620  100.9840 C   0  0  0  0  0  0  0  0  0  0  0  0
  121.3480  124.1550  103.9600 C   0  0  0  0  0  0  0  0  0  0  0  0
  123.1230  122.8920  102.8550 C   0  0  0  0  0  0  0  0  0  0  0  0
  123.9100  122.8090  100.6450 C   0  0  0  0  0  0  0  0  0  0  0  0
  120.8770  123.0160  101.8730 N   0  0  0  0  0  0  0  0  0  0  0  0
  122.0400  125.2400  104.6280 N   0  0  0  0  0  0  0  0  0  0  0  0
  120.4180  123.5770  104.4060 O   0  0  0  0  0  0  0  0  0  0  0  0
  119.9070  124.8330  100.8090 O   0  0  0  0  0  0  0  0  0  0  0  0
  124.1330  123.2360  101.9550 O   0  0  0  0  0  0  0  0  0  0  0  0
  3  1  2  0
  4  2  1  0
  6  3  1  0
  6  5  1  0
  6  4  2  0
  9  1  1  0
  9  2  2  0
 10  8  1  0
 11  7  1  0
  7 12  1  0
 14 10  1  0
 14  7  1  0
 15 11  1  0
 15  5  1  0
 16 11  2  0
 17 10  2  0
 18 13  1  0
 18 12  1  0
M  END
>  <_TriposChargeType>  (1) 
GASTEIGER

$$$$
