8THH_IYJ_A2004
     RDKit          3D

 16 17  0  0  0  0  0  0  0  0999 V2000
  122.4970  123.1140  102.5710 C   0  0  0  0  0  0  0  0  0  0  0  0
  121.9800  122.5800  101.4040 C   0  0  0  0  0  0  0  0  0  0  0  0
  120.6160  122.3680  101.2930 C   0  0  0  0  0  0  0  0  0  0  0  0
  121.6500  123.4380  103.6120 C   0  0  0  0  0  0  0  0  0  0  0  0
  122.2650  124.0240  104.8780 C   0  0  0  0  0  0  0  0  0  0  0  0
  120.2930  123.2220  103.5070 C   0  0  0  0  0  0  0  0  0  0  0  0
  122.1900  125.3870  105.0650 C   0  0  0  0  0  0  0  0  0  0  0  0
  119.7740  122.6880  102.3430 C   0  0  0  0  0  0  0  0  0  0  0  0
  123.2460  125.0860  106.9010 C   0  0  0  0  0  0  0  0  0  0  0  0
  122.8560  123.2010  105.7290 N   0  0  0  0  0  0  0  0  0  0  0  0
  122.6980  125.9700  106.1260 N   0  0  0  0  0  0  0  0  0  0  0  0
  121.5220  126.1880  104.0600 N   0  0  0  0  0  0  0  0  0  0  0  0
  123.3950  123.7770  106.8460 N   0  0  0  0  0  0  0  0  0  0  0  0
  123.8880  125.4480  108.1490 N   0  0  0  0  0  0  0  0  0  0  0  0
  124.2500  123.3950  102.7350 Cl  0  0  0  0  0  0  0  0  0  0  0  0
  123.0700  122.1660  100.0490 Cl  0  0  0  0  0  0  0  0  0  0  0  0
  2  1  2  0
  3  2  1  0
  4  1  1  0
  5  4  1  0
  6  4  2  0
  7  5  2  0
  8  6  1  0
  8  3  2  0
 10  5  1  0
 11  9  2  0
 11  7  1  0
 12  7  1  0
 13 10  2  0
 13  9  1  0
 14  9  1  0
 15  1  1  0
 16  2  1  0
M  END
>  <_TriposChargeType>  (1) 
GASTEIGER

$$$$
