8S9C_N6W_A2003
     RDKit          3D

 18 20  0  0  0  0  0  0  0  0999 V2000
  124.9160  123.3060  104.2100 C   0  0  0  0  0  0  0  0  0  0  0  0
  127.4150  123.2310  103.0300 C   0  0  0  0  0  0  0  0  0  0  0  0
  127.2200  122.6470  104.2620 C   0  0  0  0  0  0  0  0  0  0  0  0
  126.3640  123.8530  102.3870 C   0  0  0  0  0  0  0  0  0  0  0  0
  125.1160  123.8900  102.9680 C   0  0  0  0  0  0  0  0  0  0  0  0
  123.1360  125.4490  108.4250 C   0  0  0  0  0  0  0  0  0  0  0  0
  122.4510  125.8380  107.2920 C   0  0  0  0  0  0  0  0  0  0  0  0
  122.6100  125.1500  106.1080 C   0  0  0  0  0  0  0  0  0  0  0  0
  123.4600  124.0570  106.0500 C   0  0  0  0  0  0  0  0  0  0  0  0
  124.1640  123.6400  107.1850 C   0  0  0  0  0  0  0  0  0  0  0  0
  123.9790  124.3620  108.3740 C   0  0  0  0  0  0  0  0  0  0  0  0
  125.0710  122.4930  107.1910 C   0  0  0  0  0  0  0  0  0  0  0  0
  125.7920  122.0370  106.1830 C   0  0  0  0  0  0  0  0  0  0  0  0
  125.9620  122.6660  104.8770 C   0  0  0  0  0  0  0  0  0  0  0  0
  122.5390  122.7300  104.2010 C   0  0  0  0  0  0  0  0  0  0  0  0
  123.6080  123.3420  104.8090 N   0  0  0  0  0  0  0  0  0  0  0  0
  121.3210  123.1600  104.5260 N   0  0  0  0  0  0  0  0  0  0  0  0
  122.7210  121.8160  103.3760 O   0  0  0  0  0  0  0  0  0  0  0  0
  3  2  2  0
  4  2  1  0
  5  1  1  0
  5  4  2  0
  7  6  1  0
  8  7  2  0
  9  8  1  0
 10  9  2  0
 11 10  1  0
 11  6  2  0
 12 10  1  0
 13 12  2  0
 14  1  2  0
 14 13  1  0
 14  3  1  0
 16 15  1  0
 16  9  1  0
 16  1  1  0
 17 15  1  0
 18 15  2  0
M  END
>  <_TriposChargeType>  (1) 
GASTEIGER

$$$$
