Z56815564
     RDKit          3D

 68 70  0  0  0  0  0  0  0  0999 V2000
    4.9555    4.4341    1.9855 C   0  0  0  0  0  0  0  0  0  0  0  0
    3.8493    4.1143    0.9913 C   0  0  0  0  0  0  0  0  0  0  0  0
    3.0599    2.9615    1.4205 N   0  0  0  0  0  0  0  0  0  0  0  0
    3.5062    1.6391    1.2273 C   0  0  0  0  0  0  0  0  0  0  0  0
    4.6854    1.3148    0.5466 C   0  0  0  0  0  0  0  0  0  0  0  0
    5.0917   -0.0153    0.3974 C   0  0  0  0  0  0  0  0  0  0  0  0
    4.3088   -1.0554    0.9087 C   0  0  0  0  0  0  0  0  0  0  0  0
    4.6991   -2.4846    0.7578 C   0  0  0  0  0  0  0  0  0  0  0  0
    3.9650   -3.4235    1.0197 O   0  0  0  0  0  0  0  0  0  0  0  0
    5.9726   -2.5791    0.2984 O   0  0  0  0  0  0  0  0  0  0  0  0
    6.4346   -3.9235    0.1166 C   0  0  0  0  0  0  0  0  0  0  0  0
    7.8578   -3.8640   -0.4021 C   0  0  0  0  0  0  0  0  0  0  0  0
    3.1025   -0.7561    1.5531 C   0  0  0  0  0  0  0  0  0  0  0  0
    2.6874    0.5729    1.6905 C   0  0  0  0  0  0  0  0  0  0  0  0
    1.4364    0.9361    2.2380 N   0  0  0  0  0  0  0  0  0  0  0  0
    0.4676    0.1264    2.7961 C   0  0  0  0  0  0  0  0  0  0  0  0
    0.5528   -1.0775    3.0152 O   0  0  0  0  0  0  0  0  0  0  0  0
   -0.7905    0.9077    3.1950 C   0  0  0  0  0  0  0  0  0  0  0  0
   -1.0793    2.0332    2.3747 O   0  0  0  0  0  0  0  0  0  0  0  0
   -1.5945    1.7992    1.1286 C   0  0  0  0  0  0  0  0  0  0  0  0
   -1.8707    0.5508    0.5699 C   0  0  0  0  0  0  0  0  0  0  0  0
   -2.3795    0.4579   -0.7315 C   0  0  0  0  0  0  0  0  0  0  0  0
   -2.6064    1.6105   -1.4883 C   0  0  0  0  0  0  0  0  0  0  0  0
   -2.3516    2.8584   -0.9208 C   0  0  0  0  0  0  0  0  0  0  0  0
   -1.8427    2.9504    0.3773 C   0  0  0  0  0  0  0  0  0  0  0  0
   -3.1748    1.5498   -2.8093 N   0  0  0  0  0  0  0  0  0  0  0  0
   -2.6531    0.5114   -3.7194 C   0  0  0  0  0  0  0  0  0  0  0  0
   -4.8561    1.8698   -2.9284 S   0  0  0  0  0  0  0  0  0  0  0  0
   -5.2291    1.7915   -4.3284 O   0  0  0  0  0  0  0  0  0  0  0  0
   -5.1817    3.0497   -2.1517 O   0  0  0  0  0  0  0  0  0  0  0  0
   -5.6026    0.4715   -2.1106 C   0  0  0  0  0  0  0  0  0  0  0  0
   -5.9755   -0.6491   -2.8569 C   0  0  0  0  0  0  0  0  0  0  0  0
   -6.5762   -1.7332   -2.2157 C   0  0  0  0  0  0  0  0  0  0  0  0
   -6.8296   -1.6929   -0.8378 C   0  0  0  0  0  0  0  0  0  0  0  0
   -7.4473   -2.8739   -0.1474 C   0  0  0  0  0  0  0  0  0  0  0  0
   -6.4627   -0.5561   -0.1038 C   0  0  0  0  0  0  0  0  0  0  0  0
   -5.8631    0.5324   -0.7389 C   0  0  0  0  0  0  0  0  0  0  0  0
    5.5161    5.3167    1.6601 H   0  0  0  0  0  0  0  0  0  0  0  0
    5.6603    3.6031    2.0896 H   0  0  0  0  0  0  0  0  0  0  0  0
    4.5399    4.6407    2.9777 H   0  0  0  0  0  0  0  0  0  0  0  0
    4.2451    3.9861   -0.0223 H   0  0  0  0  0  0  0  0  0  0  0  0
    3.1730    4.9763    0.9420 H   0  0  0  0  0  0  0  0  0  0  0  0
    2.7353    3.0750    2.3804 H   0  0  0  0  0  0  0  0  0  0  0  0
    5.3307    2.0836    0.1325 H   0  0  0  0  0  0  0  0  0  0  0  0
    6.0219   -0.2218   -0.1269 H   0  0  0  0  0  0  0  0  0  0  0  0
    6.4101   -4.4571    1.0735 H   0  0  0  0  0  0  0  0  0  0  0  0
    5.7968   -4.4378   -0.6119 H   0  0  0  0  0  0  0  0  0  0  0  0
    8.5047   -3.3346    0.3054 H   0  0  0  0  0  0  0  0  0  0  0  0
    8.2580   -4.8690   -0.5619 H   0  0  0  0  0  0  0  0  0  0  0  0
    7.9005   -3.3116   -1.3467 H   0  0  0  0  0  0  0  0  0  0  0  0
    2.4900   -1.5780    1.9127 H   0  0  0  0  0  0  0  0  0  0  0  0
    1.1692    1.9010    2.0608 H   0  0  0  0  0  0  0  0  0  0  0  0
   -1.6527    0.2345    3.2618 H   0  0  0  0  0  0  0  0  0  0  0  0
   -0.6129    1.2864    4.2078 H   0  0  0  0  0  0  0  0  0  0  0  0
   -1.7068   -0.3774    1.1088 H   0  0  0  0  0  0  0  0  0  0  0  0
   -2.5995   -0.5279   -1.1324 H   0  0  0  0  0  0  0  0  0  0  0  0
   -2.5479    3.7671   -1.4857 H   0  0  0  0  0  0  0  0  0  0  0  0
   -1.6432    3.9309    0.8028 H   0  0  0  0  0  0  0  0  0  0  0  0
   -1.5590    0.4837   -3.6689 H   0  0  0  0  0  0  0  0  0  0  0  0
   -2.9119    0.7433   -4.7576 H   0  0  0  0  0  0  0  0  0  0  0  0
   -3.0373   -0.4813   -3.4677 H   0  0  0  0  0  0  0  0  0  0  0  0
   -5.8070   -0.6861   -3.9310 H   0  0  0  0  0  0  0  0  0  0  0  0
   -6.8545   -2.6098   -2.7989 H   0  0  0  0  0  0  0  0  0  0  0  0
   -6.6645   -3.5621    0.1863 H   0  0  0  0  0  0  0  0  0  0  0  0
   -8.1268   -3.4083   -0.8197 H   0  0  0  0  0  0  0  0  0  0  0  0
   -8.0347   -2.5572    0.7207 H   0  0  0  0  0  0  0  0  0  0  0  0
   -6.6484   -0.5115    0.9671 H   0  0  0  0  0  0  0  0  0  0  0  0
   -5.5974    1.4155   -0.1610 H   0  0  0  0  0  0  0  0  0  0  0  0
  1  2  1  0
  2  3  1  0
  3  4  1  0
  4  5  2  0
  5  6  1  0
  6  7  2  0
  7  8  1  0
  8  9  2  0
  8 10  1  0
 10 11  1  0
 11 12  1  0
  7 13  1  0
 13 14  2  0
 14 15  1  0
 15 16  1  0
 16 17  2  0
 16 18  1  0
 18 19  1  0
 19 20  1  0
 20 21  2  0
 21 22  1  0
 22 23  2  0
 23 24  1  0
 24 25  2  0
 23 26  1  0
 26 27  1  0
 26 28  1  0
 28 29  2  0
 28 30  2  0
 28 31  1  0
 31 32  2  0
 32 33  1  0
 33 34  2  0
 34 35  1  0
 34 36  1  0
 36 37  2  0
 14  4  1  0
 25 20  1  0
 37 31  1  0
  1 38  1  0
  1 39  1  0
  1 40  1  0
  2 41  1  0
  2 42  1  0
  3 43  1  0
  5 44  1  0
  6 45  1  0
 11 46  1  0
 11 47  1  0
 12 48  1  0
 12 49  1  0
 12 50  1  0
 13 51  1  0
 15 52  1  0
 18 53  1  0
 18 54  1  0
 21 55  1  0
 22 56  1  0
 24 57  1  0
 25 58  1  0
 27 59  1  0
 27 60  1  0
 27 61  1  0
 32 62  1  0
 33 63  1  0
 35 64  1  0
 35 65  1  0
 35 66  1  0
 36 67  1  0
 37 68  1  0
M  END
>  <mol_id>  (1) 
Z56815564

>  <drugclip_rank>  (1) 
1

>  <conformer>  (1) 
0

>  <align_rmsd>  (1) 
0.669

$$$$
Z197773058
     RDKit          3D

 69 72  0  0  0  0  0  0  0  0999 V2000
    5.3977    3.3204    2.0116 C   0  0  0  0  0  0  0  0  0  0  0  0
    4.7191    1.9781    1.9622 C   0  0  0  0  0  0  0  0  0  0  0  0
    4.7613    1.2461    0.7649 C   0  0  0  0  0  0  0  0  0  0  0  0
    4.1753   -0.0174    0.6776 C   0  0  0  0  0  0  0  0  0  0  0  0
    3.5312   -0.5730    1.7851 C   0  0  0  0  0  0  0  0  0  0  0  0
    3.5074    0.1395    2.9908 C   0  0  0  0  0  0  0  0  0  0  0  0
    4.1043    1.4087    3.0956 C   0  0  0  0  0  0  0  0  0  0  0  0
    4.0436    2.1403    4.4101 C   0  0  0  0  0  0  0  0  0  0  0  0
    2.8998   -1.8856    1.6804 C   0  0  0  0  0  0  0  0  0  0  0  0
    3.6064   -2.9222    1.2073 N   0  0  0  0  0  0  0  0  0  0  0  0
    2.7857   -3.9951    1.2957 N   0  0  0  0  0  0  0  0  0  0  0  0
    3.2207   -5.2840    0.8763 C   0  0  0  0  0  0  0  0  0  0  0  0
    2.3829   -6.4036    0.9750 C   0  0  0  0  0  0  0  0  0  0  0  0
    2.8360   -7.6557    0.5467 C   0  0  0  0  0  0  0  0  0  0  0  0
    4.1186   -7.7984    0.0204 C   0  0  0  0  0  0  0  0  0  0  0  0
    4.9571   -6.6910   -0.0769 C   0  0  0  0  0  0  0  0  0  0  0  0
    4.5124   -5.4374    0.3491 C   0  0  0  0  0  0  0  0  0  0  0  0
    1.5629   -3.6412    1.8029 C   0  0  0  0  0  0  0  0  0  0  0  0
    1.5722   -2.2747    2.0183 C   0  0  0  0  0  0  0  0  0  0  0  0
    0.4150   -1.5242    2.4844 C   0  0  0  0  0  0  0  0  0  0  0  0
   -0.5096   -2.0733    3.0747 O   0  0  0  0  0  0  0  0  0  0  0  0
    0.4055   -0.1872    2.1607 N   0  0  0  0  0  0  0  0  0  0  0  0
   -0.7721    0.6257    2.3445 C   0  0  0  0  0  0  0  0  0  0  0  0
   -1.5867    0.6664    1.0775 C   0  0  0  0  0  0  0  0  0  0  0  0
   -2.5951   -0.2790    0.8549 C   0  0  0  0  0  0  0  0  0  0  0  0
   -3.3277   -0.2724   -0.3333 C   0  0  0  0  0  0  0  0  0  0  0  0
   -3.0654    0.6802   -1.3270 C   0  0  0  0  0  0  0  0  0  0  0  0
   -2.0409    1.6139   -1.1123 C   0  0  0  0  0  0  0  0  0  0  0  0
   -1.3102    1.6076    0.0778 C   0  0  0  0  0  0  0  0  0  0  0  0
   -3.8526    0.6704   -2.6118 C   0  0  0  0  0  0  0  0  0  0  0  0
   -4.9916    2.0616   -2.7056 S   0  0  0  0  0  0  0  0  0  0  0  0
   -5.9405    1.8001   -3.7663 O   0  0  0  0  0  0  0  0  0  0  0  0
   -4.2325    3.2958   -2.6909 O   0  0  0  0  0  0  0  0  0  0  0  0
   -5.8148    2.0149   -1.2520 N   0  0  0  0  0  0  0  0  0  0  0  0
   -7.0259    1.2018   -1.1018 C   0  0  0  0  0  0  0  0  0  0  0  0
   -7.0991    0.7184    0.3432 C   0  0  0  0  0  0  0  0  0  0  0  0
   -8.2515    2.0429   -1.4441 C   0  0  0  0  0  0  0  0  0  0  0  0
    5.4503    3.7683    1.0115 H   0  0  0  0  0  0  0  0  0  0  0  0
    4.8453    4.0235    2.6436 H   0  0  0  0  0  0  0  0  0  0  0  0
    6.4167    3.2083    2.3979 H   0  0  0  0  0  0  0  0  0  0  0  0
    5.2635    1.6517   -0.1099 H   0  0  0  0  0  0  0  0  0  0  0  0
    4.2250   -0.5677   -0.2605 H   0  0  0  0  0  0  0  0  0  0  0  0
    3.0314   -0.2986    3.8658 H   0  0  0  0  0  0  0  0  0  0  0  0
    3.7011    1.4869    5.2187 H   0  0  0  0  0  0  0  0  0  0  0  0
    5.0383    2.5062    4.6884 H   0  0  0  0  0  0  0  0  0  0  0  0
    3.3472    2.9782    4.3303 H   0  0  0  0  0  0  0  0  0  0  0  0
    1.3784   -6.3422    1.3813 H   0  0  0  0  0  0  0  0  0  0  0  0
    2.1871   -8.5242    0.6306 H   0  0  0  0  0  0  0  0  0  0  0  0
    4.4667   -8.7742   -0.3087 H   0  0  0  0  0  0  0  0  0  0  0  0
    5.9597   -6.8010   -0.4831 H   0  0  0  0  0  0  0  0  0  0  0  0
    5.1876   -4.5862    0.2612 H   0  0  0  0  0  0  0  0  0  0  0  0
    0.7636   -4.3522    1.9471 H   0  0  0  0  0  0  0  0  0  0  0  0
    1.0944    0.1579    1.5074 H   0  0  0  0  0  0  0  0  0  0  0  0
   -1.3743    0.2495    3.1785 H   0  0  0  0  0  0  0  0  0  0  0  0
   -0.4402    1.6334    2.6118 H   0  0  0  0  0  0  0  0  0  0  0  0
   -2.8044   -1.0383    1.6068 H   0  0  0  0  0  0  0  0  0  0  0  0
   -4.1031   -1.0237   -0.4730 H   0  0  0  0  0  0  0  0  0  0  0  0
   -1.8046    2.3598   -1.8714 H   0  0  0  0  0  0  0  0  0  0  0  0
   -0.5199    2.3425    0.2157 H   0  0  0  0  0  0  0  0  0  0  0  0
   -4.4490   -0.2413   -2.7154 H   0  0  0  0  0  0  0  0  0  0  0  0
   -3.1842    0.7341   -3.4759 H   0  0  0  0  0  0  0  0  0  0  0  0
   -5.7231    2.8696   -0.7021 H   0  0  0  0  0  0  0  0  0  0  0  0
   -6.9802    0.3242   -1.7558 H   0  0  0  0  0  0  0  0  0  0  0  0
   -7.1156    1.5600    1.0454 H   0  0  0  0  0  0  0  0  0  0  0  0
   -6.2325    0.0984    0.5947 H   0  0  0  0  0  0  0  0  0  0  0  0
   -7.9997    0.1175    0.5078 H   0  0  0  0  0  0  0  0  0  0  0  0
   -9.1708    1.4615   -1.3125 H   0  0  0  0  0  0  0  0  0  0  0  0
   -8.2211    2.3898   -2.4823 H   0  0  0  0  0  0  0  0  0  0  0  0
   -8.3147    2.9314   -0.8048 H   0  0  0  0  0  0  0  0  0  0  0  0
  1  2  1  0
  2  3  2  0
  3  4  1  0
  4  5  2  0
  5  6  1  0
  6  7  2  0
  7  8  1  0
  5  9  1  0
  9 10  2  0
 10 11  1  0
 11 12  1  0
 12 13  2  0
 13 14  1  0
 14 15  2  0
 15 16  1  0
 16 17  2  0
 11 18  1  0
 18 19  2  0
 19 20  1  0
 20 21  2  0
 20 22  1  0
 22 23  1  0
 23 24  1  0
 24 25  2  0
 25 26  1  0
 26 27  2  0
 27 28  1  0
 28 29  2  0
 27 30  1  0
 30 31  1  0
 31 32  2  0
 31 33  2  0
 31 34  1  0
 34 35  1  0
 35 36  1  0
 35 37  1  0
  7  2  1  0
 19  9  1  0
 17 12  1  0
 29 24  1  0
  1 38  1  0
  1 39  1  0
  1 40  1  0
  3 41  1  0
  4 42  1  0
  6 43  1  0
  8 44  1  0
  8 45  1  0
  8 46  1  0
 13 47  1  0
 14 48  1  0
 15 49  1  0
 16 50  1  0
 17 51  1  0
 18 52  1  0
 22 53  1  0
 23 54  1  0
 23 55  1  0
 25 56  1  0
 26 57  1  0
 28 58  1  0
 29 59  1  0
 30 60  1  0
 30 61  1  0
 34 62  1  0
 35 63  1  0
 36 64  1  0
 36 65  1  0
 36 66  1  0
 37 67  1  0
 37 68  1  0
 37 69  1  0
M  END
>  <mol_id>  (2) 
Z197773058

>  <drugclip_rank>  (2) 
2

>  <conformer>  (2) 
10

>  <align_rmsd>  (2) 
1.423

$$$$
V024-3760
     RDKit          3D

 79 83  0  0  0  0  0  0  0  0999 V2000
   -1.5984   -0.2477    3.5702 C   0  0  0  0  0  0  0  0  0  0  0  0
   -2.0145   -0.1987    4.9021 C   0  0  0  0  0  0  0  0  0  0  0  0
   -1.8292    0.9622    5.6480 C   0  0  0  0  0  0  0  0  0  0  0  0
   -1.2189    2.0719    5.0668 C   0  0  0  0  0  0  0  0  0  0  0  0
   -0.7997    2.0233    3.7355 C   0  0  0  0  0  0  0  0  0  0  0  0
   -0.9910    0.8652    2.9638 C   0  0  0  0  0  0  0  0  0  0  0  0
   -0.5607    0.7962    1.4932 C   0  0  0  0  0  0  0  0  0  0  0  0
    0.9185    0.8145    1.3777 N   0  0  0  0  0  0  0  0  0  0  0  0
    1.5591   -0.3831    1.7009 C   0  0  0  0  0  0  0  0  0  0  0  0
    0.9182   -1.3933    2.0160 O   0  0  0  0  0  0  0  0  0  0  0  0
    3.0895   -0.4913    1.6946 C   0  0  0  0  0  0  0  0  0  0  0  0
    3.7598    0.4574    2.6826 C   0  0  0  0  0  0  0  0  0  0  0  0
    3.7175   -0.4748    0.3058 C   0  0  0  0  0  0  0  0  0  0  0  0
    1.5138    1.7962    0.4710 C   0  0  0  0  0  0  0  0  0  0  0  0
    0.8216    3.1546    0.4681 C   0  0  0  0  0  0  0  0  0  0  0  0
   -0.6372    2.9857    0.1726 C   0  0  0  0  0  0  0  0  0  0  0  0
   -1.2981    1.8491    0.6608 C   0  0  0  0  0  0  0  0  0  0  0  0
   -1.3464    3.9509   -0.5480 C   0  0  0  0  0  0  0  0  0  0  0  0
   -2.7090    3.7779   -0.7945 C   0  0  0  0  0  0  0  0  0  0  0  0
   -3.3855    2.6585   -0.3081 C   0  0  0  0  0  0  0  0  0  0  0  0
   -2.6763    1.6951    0.4072 C   0  0  0  0  0  0  0  0  0  0  0  0
   -4.7156    2.6145   -0.6172 O   0  0  0  0  0  0  0  0  0  0  0  0
   -5.5681    1.7642    0.1528 C   0  0  0  0  0  0  0  0  0  0  0  0
   -5.8088    0.5134   -0.6130 C   0  0  0  0  0  0  0  0  0  0  0  0
   -5.3915   -0.7916   -0.4583 C   0  0  0  0  0  0  0  0  0  0  0  0
   -5.9645   -1.5210   -1.5261 C   0  0  0  0  0  0  0  0  0  0  0  0
   -6.6221    0.6124   -1.7043 O   0  0  0  0  0  0  0  0  0  0  0  0
   -6.7278   -0.6329   -2.2645 C   0  0  0  0  0  0  0  0  0  0  0  0
   -7.4964   -0.8615   -3.4800 C   0  0  0  0  0  0  0  0  0  0  0  0
   -7.3265   -1.8895   -4.1423 O   0  0  0  0  0  0  0  0  0  0  0  0
   -8.4373    0.0839   -3.8988 N   0  0  0  0  0  0  0  0  0  0  0  0
   -9.0911   -0.1058   -5.1917 C   0  0  0  0  0  0  0  0  0  0  0  0
   -9.5605    1.2241   -5.8114 C   0  0  0  0  0  0  0  0  0  0  0  0
  -10.4116    2.0680   -4.9446 N   0  0  0  0  0  0  0  0  0  0  0  0
  -10.3432    1.6513   -3.5293 C   0  0  0  0  0  0  0  0  0  0  0  0
   -8.9400    1.1952   -3.0863 C   0  0  0  0  0  0  0  0  0  0  0  0
  -11.8112    2.1317   -5.3962 C   0  0  0  0  0  0  0  0  0  0  0  0
  -12.0072    2.9848   -6.6629 C   0  0  0  0  0  0  0  0  0  0  0  0
  -13.3914    3.0763   -7.0208 O   0  0  0  0  0  0  0  0  0  0  0  0
  -13.8473    1.9542   -7.7654 C   0  0  0  0  0  0  0  0  0  0  0  0
   -1.7312   -1.1710    3.0093 H   0  0  0  0  0  0  0  0  0  0  0  0
   -2.4754   -1.0713    5.3580 H   0  0  0  0  0  0  0  0  0  0  0  0
   -2.1515    0.9996    6.6849 H   0  0  0  0  0  0  0  0  0  0  0  0
   -1.0689    2.9769    5.6498 H   0  0  0  0  0  0  0  0  0  0  0  0
   -0.3277    2.9014    3.3038 H   0  0  0  0  0  0  0  0  0  0  0  0
   -0.8853   -0.1671    1.0735 H   0  0  0  0  0  0  0  0  0  0  0  0
    3.2831   -1.5012    2.0887 H   0  0  0  0  0  0  0  0  0  0  0  0
    3.7617    1.4965    2.3460 H   0  0  0  0  0  0  0  0  0  0  0  0
    3.2505    0.4295    3.6523 H   0  0  0  0  0  0  0  0  0  0  0  0
    4.8039    0.1648    2.8430 H   0  0  0  0  0  0  0  0  0  0  0  0
    3.9098    0.5351   -0.0635 H   0  0  0  0  0  0  0  0  0  0  0  0
    3.0812   -0.9888   -0.4221 H   0  0  0  0  0  0  0  0  0  0  0  0
    4.6852   -0.9886    0.3260 H   0  0  0  0  0  0  0  0  0  0  0  0
    1.4889    1.3553   -0.5341 H   0  0  0  0  0  0  0  0  0  0  0  0
    2.5579    1.9615    0.7260 H   0  0  0  0  0  0  0  0  0  0  0  0
    0.9357    3.6479    1.4398 H   0  0  0  0  0  0  0  0  0  0  0  0
    1.2949    3.7929   -0.2876 H   0  0  0  0  0  0  0  0  0  0  0  0
   -0.8470    4.8398   -0.9265 H   0  0  0  0  0  0  0  0  0  0  0  0
   -3.2523    4.5289   -1.3635 H   0  0  0  0  0  0  0  0  0  0  0  0
   -3.1662    0.8036    0.7841 H   0  0  0  0  0  0  0  0  0  0  0  0
   -6.5198    2.2952    0.2737 H   0  0  0  0  0  0  0  0  0  0  0  0
   -5.1957    1.5772    1.1661 H   0  0  0  0  0  0  0  0  0  0  0  0
   -4.7435   -1.1714    0.3196 H   0  0  0  0  0  0  0  0  0  0  0  0
   -5.8455   -2.5734   -1.7483 H   0  0  0  0  0  0  0  0  0  0  0  0
   -8.4074   -0.6087   -5.8850 H   0  0  0  0  0  0  0  0  0  0  0  0
   -9.9468   -0.7733   -5.0312 H   0  0  0  0  0  0  0  0  0  0  0  0
  -10.0382    1.0096   -6.7745 H   0  0  0  0  0  0  0  0  0  0  0  0
   -8.6685    1.8197   -6.0451 H   0  0  0  0  0  0  0  0  0  0  0  0
  -11.0425    0.8236   -3.3470 H   0  0  0  0  0  0  0  0  0  0  0  0
  -10.6587    2.4879   -2.8954 H   0  0  0  0  0  0  0  0  0  0  0  0
   -8.9899    0.8879   -2.0371 H   0  0  0  0  0  0  0  0  0  0  0  0
   -8.2271    2.0226   -3.1789 H   0  0  0  0  0  0  0  0  0  0  0  0
  -12.4332    2.5872   -4.6134 H   0  0  0  0  0  0  0  0  0  0  0  0
  -12.2150    1.1216   -5.5387 H   0  0  0  0  0  0  0  0  0  0  0  0
  -11.6677    4.0074   -6.4600 H   0  0  0  0  0  0  0  0  0  0  0  0
  -11.4250    2.6154   -7.5144 H   0  0  0  0  0  0  0  0  0  0  0  0
  -13.7730    1.0353   -7.1778 H   0  0  0  0  0  0  0  0  0  0  0  0
  -14.8989    2.1162   -8.0180 H   0  0  0  0  0  0  0  0  0  0  0  0
  -13.2792    1.8542   -8.6951 H   0  0  0  0  0  0  0  0  0  0  0  0
  1  2  2  0
  2  3  1  0
  3  4  2  0
  4  5  1  0
  5  6  2  0
  6  7  1  0
  7  8  1  0
  8  9  1  0
  9 10  2  0
  9 11  1  0
 11 12  1  0
 11 13  1  0
  8 14  1  0
 14 15  1  0
 15 16  1  0
 16 17  2  0
 16 18  1  0
 18 19  2  0
 19 20  1  0
 20 21  2  0
 20 22  1  0
 22 23  1  0
 23 24  1  0
 24 25  2  0
 25 26  1  0
 24 27  1  0
 27 28  1  0
 28 29  1  0
 29 30  2  0
 29 31  1  0
 31 32  1  0
 32 33  1  0
 33 34  1  0
 34 35  1  0
 35 36  1  0
 34 37  1  0
 37 38  1  0
 38 39  1  0
 39 40  1  0
  6  1  1  0
 17  7  1  0
 21 17  1  0
 28 26  2  0
 36 31  1  0
  1 41  1  0
  2 42  1  0
  3 43  1  0
  4 44  1  0
  5 45  1  0
  7 46  1  0
 11 47  1  0
 12 48  1  0
 12 49  1  0
 12 50  1  0
 13 51  1  0
 13 52  1  0
 13 53  1  0
 14 54  1  0
 14 55  1  0
 15 56  1  0
 15 57  1  0
 18 58  1  0
 19 59  1  0
 21 60  1  0
 23 61  1  0
 23 62  1  0
 25 63  1  0
 26 64  1  0
 32 65  1  0
 32 66  1  0
 33 67  1  0
 33 68  1  0
 35 69  1  0
 35 70  1  0
 36 71  1  0
 36 72  1  0
 37 73  1  0
 37 74  1  0
 38 75  1  0
 38 76  1  0
 40 77  1  0
 40 78  1  0
 40 79  1  0
M  END
>  <mol_id>  (3) 
V024-3760

>  <drugclip_rank>  (3) 
3

>  <conformer>  (3) 
31

>  <align_rmsd>  (3) 
0.971

$$$$
V003-6048
     RDKit          3D

 79 83  0  0  0  0  0  0  0  0999 V2000
   -5.8502    0.1161    0.0419 C   0  0  0  0  0  0  0  0  0  0  0  0
   -6.8839   -0.7941    0.2898 C   0  0  0  0  0  0  0  0  0  0  0  0
   -7.6024   -1.3605   -0.7659 C   0  0  0  0  0  0  0  0  0  0  0  0
   -8.7220   -2.3176   -0.4890 C   0  0  0  0  0  0  0  0  0  0  0  0
   -7.2814   -0.9897   -2.0740 C   0  0  0  0  0  0  0  0  0  0  0  0
   -6.2426   -0.0863   -2.3189 C   0  0  0  0  0  0  0  0  0  0  0  0
   -5.5070    0.4915   -1.2680 C   0  0  0  0  0  0  0  0  0  0  0  0
   -4.3831    1.4880   -1.5989 C   0  0  0  0  0  0  0  0  0  0  0  0
   -4.9424    2.7655   -2.1060 N   0  0  0  0  0  0  0  0  0  0  0  0
   -5.0717    2.9171   -3.4828 C   0  0  0  0  0  0  0  0  0  0  0  0
   -4.7233    2.0494   -4.2862 O   0  0  0  0  0  0  0  0  0  0  0  0
   -5.7191    4.1857   -4.0105 C   0  0  0  0  0  0  0  0  0  0  0  0
   -7.2340    4.0770   -3.9760 C   0  0  0  0  0  0  0  0  0  0  0  0
   -5.0564    3.9035   -1.1865 C   0  0  0  0  0  0  0  0  0  0  0  0
   -4.8545    3.5853    0.2937 C   0  0  0  0  0  0  0  0  0  0  0  0
   -3.6188    2.7495    0.4666 C   0  0  0  0  0  0  0  0  0  0  0  0
   -3.3847    1.7262   -0.4674 C   0  0  0  0  0  0  0  0  0  0  0  0
   -2.7378    2.9366    1.5346 C   0  0  0  0  0  0  0  0  0  0  0  0
   -1.6051    2.1275    1.6630 C   0  0  0  0  0  0  0  0  0  0  0  0
   -1.3538    1.1207    0.7302 C   0  0  0  0  0  0  0  0  0  0  0  0
   -2.2522    0.9133   -0.3197 C   0  0  0  0  0  0  0  0  0  0  0  0
   -0.2876    0.2647    0.7442 O   0  0  0  0  0  0  0  0  0  0  0  0
    0.8228    0.6362    1.5577 C   0  0  0  0  0  0  0  0  0  0  0  0
    1.9475   -0.2739    1.2144 C   0  0  0  0  0  0  0  0  0  0  0  0
    2.0420   -1.4710    0.5345 C   0  0  0  0  0  0  0  0  0  0  0  0
    3.4127   -1.8188    0.5250 C   0  0  0  0  0  0  0  0  0  0  0  0
    3.1861    0.1145    1.6396 O   0  0  0  0  0  0  0  0  0  0  0  0
    4.0864   -0.8340    1.2244 C   0  0  0  0  0  0  0  0  0  0  0  0
    5.5123   -0.6752    1.4688 C   0  0  0  0  0  0  0  0  0  0  0  0
    6.3443   -1.2531    0.7661 O   0  0  0  0  0  0  0  0  0  0  0  0
    5.9377    0.1393    2.5208 N   0  0  0  0  0  0  0  0  0  0  0  0
    5.0969    0.5731    3.6405 C   0  0  0  0  0  0  0  0  0  0  0  0
    5.9124    0.7077    4.9419 C   0  0  0  0  0  0  0  0  0  0  0  0
    7.0505    1.6497    4.8506 N   0  0  0  0  0  0  0  0  0  0  0  0
    7.5898    1.7279    3.4724 C   0  0  0  0  0  0  0  0  0  0  0  0
    7.3595    0.4679    2.6209 C   0  0  0  0  0  0  0  0  0  0  0  0
    8.1165    1.3259    5.8194 C   0  0  0  0  0  0  0  0  0  0  0  0
    7.6618    1.3322    7.2917 C   0  0  0  0  0  0  0  0  0  0  0  0
    8.7601    1.1428    8.1906 O   0  0  0  0  0  0  0  0  0  0  0  0
    9.1771   -0.2118    8.2902 C   0  0  0  0  0  0  0  0  0  0  0  0
   -5.3175    0.5159    0.8999 H   0  0  0  0  0  0  0  0  0  0  0  0
   -7.1167   -1.0649    1.3189 H   0  0  0  0  0  0  0  0  0  0  0  0
   -8.4099   -3.0665    0.2477 H   0  0  0  0  0  0  0  0  0  0  0  0
   -9.5936   -1.7743   -0.1080 H   0  0  0  0  0  0  0  0  0  0  0  0
   -9.0218   -2.8561   -1.3956 H   0  0  0  0  0  0  0  0  0  0  0  0
   -7.8282   -1.4050   -2.9168 H   0  0  0  0  0  0  0  0  0  0  0  0
   -6.0079    0.1621   -3.3525 H   0  0  0  0  0  0  0  0  0  0  0  0
   -3.8036    1.0285   -2.4126 H   0  0  0  0  0  0  0  0  0  0  0  0
   -5.3877    4.3149   -5.0475 H   0  0  0  0  0  0  0  0  0  0  0  0
   -5.3708    5.0698   -3.4729 H   0  0  0  0  0  0  0  0  0  0  0  0
   -7.6867    4.9311   -4.4888 H   0  0  0  0  0  0  0  0  0  0  0  0
   -7.6122    4.0570   -2.9494 H   0  0  0  0  0  0  0  0  0  0  0  0
   -7.5745    3.1590   -4.4703 H   0  0  0  0  0  0  0  0  0  0  0  0
   -4.2971    4.6315   -1.5003 H   0  0  0  0  0  0  0  0  0  0  0  0
   -6.0317    4.3791   -1.3238 H   0  0  0  0  0  0  0  0  0  0  0  0
   -4.7714    4.5233    0.8540 H   0  0  0  0  0  0  0  0  0  0  0  0
   -5.7169    3.0401    0.6929 H   0  0  0  0  0  0  0  0  0  0  0  0
   -2.9241    3.7117    2.2733 H   0  0  0  0  0  0  0  0  0  0  0  0
   -0.9480    2.3016    2.5097 H   0  0  0  0  0  0  0  0  0  0  0  0
   -2.0628    0.1104   -1.0301 H   0  0  0  0  0  0  0  0  0  0  0  0
    1.1239    1.6706    1.3551 H   0  0  0  0  0  0  0  0  0  0  0  0
    0.5725    0.5122    2.6174 H   0  0  0  0  0  0  0  0  0  0  0  0
    1.2199   -2.0083    0.0804 H   0  0  0  0  0  0  0  0  0  0  0  0
    3.8730   -2.6837    0.0645 H   0  0  0  0  0  0  0  0  0  0  0  0
    4.6529    1.5379    3.3703 H   0  0  0  0  0  0  0  0  0  0  0  0
    4.2937   -0.1512    3.8062 H   0  0  0  0  0  0  0  0  0  0  0  0
    5.2430    1.0360    5.7453 H   0  0  0  0  0  0  0  0  0  0  0  0
    6.2742   -0.2958    5.2053 H   0  0  0  0  0  0  0  0  0  0  0  0
    7.0790    2.5647    2.9809 H   0  0  0  0  0  0  0  0  0  0  0  0
    8.6527    1.9932    3.4695 H   0  0  0  0  0  0  0  0  0  0  0  0
    7.8708   -0.3967    3.0628 H   0  0  0  0  0  0  0  0  0  0  0  0
    7.7696    0.6181    1.6149 H   0  0  0  0  0  0  0  0  0  0  0  0
    8.9226    2.0683    5.7310 H   0  0  0  0  0  0  0  0  0  0  0  0
    8.5714    0.3571    5.5729 H   0  0  0  0  0  0  0  0  0  0  0  0
    7.2258    2.3089    7.5295 H   0  0  0  0  0  0  0  0  0  0  0  0
    6.8935    0.5753    7.4903 H   0  0  0  0  0  0  0  0  0  0  0  0
    9.9339   -0.2838    9.0745 H   0  0  0  0  0  0  0  0  0  0  0  0
    8.3400   -0.8581    8.5645 H   0  0  0  0  0  0  0  0  0  0  0  0
    9.6212   -0.5518    7.3501 H   0  0  0  0  0  0  0  0  0  0  0  0
  1  2  2  0
  2  3  1  0
  3  4  1  0
  3  5  2  0
  5  6  1  0
  6  7  2  0
  7  8  1  0
  8  9  1  0
  9 10  1  0
 10 11  2  0
 10 12  1  0
 12 13  1  0
  9 14  1  0
 14 15  1  0
 15 16  1  0
 16 17  2  0
 16 18  1  0
 18 19  2  0
 19 20  1  0
 20 21  2  0
 20 22  1  0
 22 23  1  0
 23 24  1  0
 24 25  2  0
 25 26  1  0
 24 27  1  0
 27 28  1  0
 28 29  1  0
 29 30  2  0
 29 31  1  0
 31 32  1  0
 32 33  1  0
 33 34  1  0
 34 35  1  0
 35 36  1  0
 34 37  1  0
 37 38  1  0
 38 39  1  0
 39 40  1  0
  7  1  1  0
 17  8  1  0
 21 17  1  0
 28 26  2  0
 36 31  1  0
  1 41  1  0
  2 42  1  0
  4 43  1  0
  4 44  1  0
  4 45  1  0
  5 46  1  0
  6 47  1  0
  8 48  1  0
 12 49  1  0
 12 50  1  0
 13 51  1  0
 13 52  1  0
 13 53  1  0
 14 54  1  0
 14 55  1  0
 15 56  1  0
 15 57  1  0
 18 58  1  0
 19 59  1  0
 21 60  1  0
 23 61  1  0
 23 62  1  0
 25 63  1  0
 26 64  1  0
 32 65  1  0
 32 66  1  0
 33 67  1  0
 33 68  1  0
 35 69  1  0
 35 70  1  0
 36 71  1  0
 36 72  1  0
 37 73  1  0
 37 74  1  0
 38 75  1  0
 38 76  1  0
 40 77  1  0
 40 78  1  0
 40 79  1  0
M  END
>  <mol_id>  (4) 
V003-6048

>  <drugclip_rank>  (4) 
4

>  <conformer>  (4) 
20

>  <align_rmsd>  (4) 
0.929

$$$$
Z30578797
     RDKit          3D

 71 74  0  0  0  0  0  0  0  0999 V2000
   -7.4810    1.7734   -2.2808 C   0  0  0  0  0  0  0  0  0  0  0  0
   -6.6589    0.6946   -1.5747 C   0  0  0  0  0  0  0  0  0  0  0  0
   -7.2389   -0.6860   -1.8924 C   0  0  0  0  0  0  0  0  0  0  0  0
   -6.6027    0.8989   -0.0473 C   0  0  0  0  0  0  0  0  0  0  0  0
   -6.0088    2.2373    0.4031 C   0  0  0  0  0  0  0  0  0  0  0  0
   -4.7811    2.5361   -0.2562 O   0  0  0  0  0  0  0  0  0  0  0  0
   -3.6233    1.9727    0.1960 C   0  0  0  0  0  0  0  0  0  0  0  0
   -2.5146    2.2102   -0.6221 C   0  0  0  0  0  0  0  0  0  0  0  0
   -1.2574    1.6968   -0.2950 C   0  0  0  0  0  0  0  0  0  0  0  0
   -1.0930    0.9456    0.8751 C   0  0  0  0  0  0  0  0  0  0  0  0
   -2.2042    0.6963    1.6892 C   0  0  0  0  0  0  0  0  0  0  0  0
   -3.4633    1.2115    1.3529 C   0  0  0  0  0  0  0  0  0  0  0  0
    0.2275    0.3653    1.2609 C   0  0  0  0  0  0  0  0  0  0  0  0
    0.2511   -0.6571    1.9382 O   0  0  0  0  0  0  0  0  0  0  0  0
    1.3224    1.0875    0.8403 N   0  0  0  0  0  0  0  0  0  0  0  0
    2.6856    0.7390    0.9180 C   0  0  0  0  0  0  0  0  0  0  0  0
    3.1449   -0.5193    1.3037 C   0  0  0  0  0  0  0  0  0  0  0  0
    4.5195   -0.7720    1.3013 C   0  0  0  0  0  0  0  0  0  0  0  0
    5.0938   -2.3926    1.7405 S   0  0  0  0  0  0  0  0  0  0  0  0
    4.2765   -3.3494    1.0256 O   0  0  0  0  0  0  0  0  0  0  0  0
    6.5385   -2.4109    1.6205 O   0  0  0  0  0  0  0  0  0  0  0  0
    4.7194   -2.4958    3.4031 N   0  0  0  0  0  0  0  0  0  0  0  0
    5.4824   -1.5540    4.2835 C   0  0  0  0  0  0  0  0  0  0  0  0
    5.0010   -1.6927    5.7326 C   0  0  0  0  0  0  0  0  0  0  0  0
    5.1646   -3.0365    6.2059 O   0  0  0  0  0  0  0  0  0  0  0  0
    4.3943   -3.9409    5.3982 C   0  0  0  0  0  0  0  0  0  0  0  0
    4.8358   -3.8952    3.9300 C   0  0  0  0  0  0  0  0  0  0  0  0
    5.4342    0.2134    0.9230 C   0  0  0  0  0  0  0  0  0  0  0  0
    4.9709    1.4751    0.5434 C   0  0  0  0  0  0  0  0  0  0  0  0
    3.5969    1.7534    0.5206 C   0  0  0  0  0  0  0  0  0  0  0  0
    3.0757    3.0214    0.1667 N   0  0  0  0  0  0  0  0  0  0  0  0
    3.5787    3.5872   -1.1082 C   0  0  0  0  0  0  0  0  0  0  0  0
    3.1654    5.0639   -1.1999 C   0  0  0  0  0  0  0  0  0  0  0  0
    3.7598    5.8781   -0.1750 O   0  0  0  0  0  0  0  0  0  0  0  0
    4.0528    5.1570    1.0325 C   0  0  0  0  0  0  0  0  0  0  0  0
    3.0984    3.9818    1.3022 C   0  0  0  0  0  0  0  0  0  0  0  0
   -7.5394    1.5738   -3.3575 H   0  0  0  0  0  0  0  0  0  0  0  0
   -8.5048    1.8109   -1.8884 H   0  0  0  0  0  0  0  0  0  0  0  0
   -7.0306    2.7650   -2.1576 H   0  0  0  0  0  0  0  0  0  0  0  0
   -5.6381    0.7260   -1.9753 H   0  0  0  0  0  0  0  0  0  0  0  0
   -7.2335   -0.8702   -2.9718 H   0  0  0  0  0  0  0  0  0  0  0  0
   -6.6490   -1.4766   -1.4172 H   0  0  0  0  0  0  0  0  0  0  0  0
   -8.2725   -0.7747   -1.5392 H   0  0  0  0  0  0  0  0  0  0  0  0
   -6.0056    0.0862    0.3828 H   0  0  0  0  0  0  0  0  0  0  0  0
   -7.6077    0.8033    0.3806 H   0  0  0  0  0  0  0  0  0  0  0  0
   -5.9146    2.2940    1.4940 H   0  0  0  0  0  0  0  0  0  0  0  0
   -6.7039    3.0411    0.1384 H   0  0  0  0  0  0  0  0  0  0  0  0
   -2.6385    2.7870   -1.5356 H   0  0  0  0  0  0  0  0  0  0  0  0
   -0.4305    1.8679   -0.9793 H   0  0  0  0  0  0  0  0  0  0  0  0
   -2.0935    0.1001    2.5923 H   0  0  0  0  0  0  0  0  0  0  0  0
   -4.2917    0.9930    2.0168 H   0  0  0  0  0  0  0  0  0  0  0  0
    1.1907    2.0217    0.4594 H   0  0  0  0  0  0  0  0  0  0  0  0
    2.4580   -1.3144    1.5801 H   0  0  0  0  0  0  0  0  0  0  0  0
    6.5519   -1.7897    4.2298 H   0  0  0  0  0  0  0  0  0  0  0  0
    5.3257   -0.5209    3.9610 H   0  0  0  0  0  0  0  0  0  0  0  0
    5.5911   -1.0390    6.3827 H   0  0  0  0  0  0  0  0  0  0  0  0
    3.9477   -1.4021    5.8292 H   0  0  0  0  0  0  0  0  0  0  0  0
    3.3303   -3.6933    5.4996 H   0  0  0  0  0  0  0  0  0  0  0  0
    4.5427   -4.9496    5.7968 H   0  0  0  0  0  0  0  0  0  0  0  0
    4.1893   -4.5668    3.3532 H   0  0  0  0  0  0  0  0  0  0  0  0
    5.8773   -4.2289    3.8426 H   0  0  0  0  0  0  0  0  0  0  0  0
    6.5020    0.0095    0.9146 H   0  0  0  0  0  0  0  0  0  0  0  0
    5.6997    2.2338    0.2758 H   0  0  0  0  0  0  0  0  0  0  0  0
    4.6705    3.5273   -1.1808 H   0  0  0  0  0  0  0  0  0  0  0  0
    3.1421    3.0303   -1.9439 H   0  0  0  0  0  0  0  0  0  0  0  0
    3.4634    5.4820   -2.1668 H   0  0  0  0  0  0  0  0  0  0  0  0
    2.0755    5.1652   -1.1179 H   0  0  0  0  0  0  0  0  0  0  0  0
    5.0894    4.8038    0.9695 H   0  0  0  0  0  0  0  0  0  0  0  0
    4.0019    5.8753    1.8591 H   0  0  0  0  0  0  0  0  0  0  0  0
    3.3702    3.4986    2.2493 H   0  0  0  0  0  0  0  0  0  0  0  0
    2.0791    4.3694    1.4187 H   0  0  0  0  0  0  0  0  0  0  0  0
  1  2  1  0
  2  3  1  0
  2  4  1  0
  4  5  1  0
  5  6  1  0
  6  7  1  0
  7  8  2  0
  8  9  1  0
  9 10  2  0
 10 11  1  0
 11 12  2  0
 10 13  1  0
 13 14  2  0
 13 15  1  0
 15 16  1  0
 16 17  2  0
 17 18  1  0
 18 19  1  0
 19 20  2  0
 19 21  2  0
 19 22  1  0
 22 23  1  0
 23 24  1  0
 24 25  1  0
 25 26  1  0
 26 27  1  0
 18 28  2  0
 28 29  1  0
 29 30  2  0
 30 31  1  0
 31 32  1  0
 32 33  1  0
 33 34  1  0
 34 35  1  0
 35 36  1  0
 12  7  1  0
 30 16  1  0
 27 22  1  0
 36 31  1  0
  1 37  1  0
  1 38  1  0
  1 39  1  0
  2 40  1  0
  3 41  1  0
  3 42  1  0
  3 43  1  0
  4 44  1  0
  4 45  1  0
  5 46  1  0
  5 47  1  0
  8 48  1  0
  9 49  1  0
 11 50  1  0
 12 51  1  0
 15 52  1  0
 17 53  1  0
 23 54  1  0
 23 55  1  0
 24 56  1  0
 24 57  1  0
 26 58  1  0
 26 59  1  0
 27 60  1  0
 27 61  1  0
 28 62  1  0
 29 63  1  0
 32 64  1  0
 32 65  1  0
 33 66  1  0
 33 67  1  0
 35 68  1  0
 35 69  1  0
 36 70  1  0
 36 71  1  0
M  END
>  <mol_id>  (5) 
Z30578797

>  <drugclip_rank>  (5) 
5

>  <conformer>  (5) 
12

>  <align_rmsd>  (5) 
0.726

$$$$
OSSK_595543
     RDKit          3D

 74 77  0  0  0  0  0  0  0  0999 V2000
   -3.1085    1.2741   -4.1995 C   0  0  0  0  0  0  0  0  0  0  0  0
   -3.8995    0.6629   -3.0234 C   0  0  0  0  0  0  0  0  0  0  0  0
   -4.1107   -0.8352   -3.3425 C   0  0  0  0  0  0  0  0  0  0  0  0
   -5.3004    1.3124   -2.9601 C   0  0  0  0  0  0  0  0  0  0  0  0
   -3.1480    0.9175   -1.7049 C   0  0  0  0  0  0  0  0  0  0  0  0
   -2.6621   -0.1212   -0.8972 C   0  0  0  0  0  0  0  0  0  0  0  0
   -1.9982    0.1359    0.3127 C   0  0  0  0  0  0  0  0  0  0  0  0
   -1.8044    1.4439    0.7492 C   0  0  0  0  0  0  0  0  0  0  0  0
   -2.2599    2.4897   -0.0503 C   0  0  0  0  0  0  0  0  0  0  0  0
   -2.9213    2.2318   -1.2573 C   0  0  0  0  0  0  0  0  0  0  0  0
   -1.1897    1.8295    1.9099 O   0  0  0  0  0  0  0  0  0  0  0  0
   -0.8606    0.8100    2.8444 C   0  0  0  0  0  0  0  0  0  0  0  0
    0.4452    0.0777    2.5230 C   0  0  0  0  0  0  0  0  0  0  0  0
    0.5264   -1.1448    2.6123 O   0  0  0  0  0  0  0  0  0  0  0  0
    1.4631    0.9450    2.1941 N   0  0  0  0  0  0  0  0  0  0  0  0
    2.7761    0.6520    1.7749 C   0  0  0  0  0  0  0  0  0  0  0  0
    3.6179    1.7743    1.5706 C   0  0  0  0  0  0  0  0  0  0  0  0
    4.9256    1.5649    1.1154 C   0  0  0  0  0  0  0  0  0  0  0  0
    5.3953    0.2709    0.8805 C   0  0  0  0  0  0  0  0  0  0  0  0
    4.5618   -0.8372    1.0917 C   0  0  0  0  0  0  0  0  0  0  0  0
    3.2492   -0.6417    1.5428 C   0  0  0  0  0  0  0  0  0  0  0  0
    5.1186   -2.1891    0.8124 C   0  0  0  0  0  0  0  0  0  0  0  0
    6.2514   -2.3750    0.3944 O   0  0  0  0  0  0  0  0  0  0  0  0
    4.2085   -3.1549    1.0849 O   0  0  0  0  0  0  0  0  0  0  0  0
    4.6700   -4.4822    0.8317 C   0  0  0  0  0  0  0  0  0  0  0  0
    3.0992    3.0693    1.8289 N   0  0  0  0  0  0  0  0  0  0  0  0
    2.8537    3.8608    0.5958 C   0  0  0  0  0  0  0  0  0  0  0  0
    3.8794    4.9834    0.3725 C   0  0  0  0  0  0  0  0  0  0  0  0
    3.8227    3.7754    2.9148 C   0  0  0  0  0  0  0  0  0  0  0  0
    3.6220    5.2968    2.8346 C   0  0  0  0  0  0  0  0  0  0  0  0
    4.1007    5.8301    1.5505 N   0  0  0  0  0  0  0  0  0  0  0  0
    4.7502    7.0442    1.3662 C   0  0  0  0  0  0  0  0  0  0  0  0
    5.1150    7.4662    0.2715 O   0  0  0  0  0  0  0  0  0  0  0  0
    5.0425    7.8672    2.5523 C   0  0  0  0  0  0  0  0  0  0  0  0
    6.1925    7.5950    3.3017 C   0  0  0  0  0  0  0  0  0  0  0  0
    6.4737    8.3677    4.4283 C   0  0  0  0  0  0  0  0  0  0  0  0
    5.6164    9.4108    4.7895 C   0  0  0  0  0  0  0  0  0  0  0  0
    4.4805    9.6901    4.0235 C   0  0  0  0  0  0  0  0  0  0  0  0
    4.1897    8.9188    2.8966 C   0  0  0  0  0  0  0  0  0  0  0  0
   -2.0935    0.8599   -4.2515 H   0  0  0  0  0  0  0  0  0  0  0  0
   -3.6027    1.0696   -5.1580 H   0  0  0  0  0  0  0  0  0  0  0  0
   -3.0153    2.3630   -4.1117 H   0  0  0  0  0  0  0  0  0  0  0  0
   -3.1554   -1.3607   -3.4576 H   0  0  0  0  0  0  0  0  0  0  0  0
   -4.6650   -0.9672   -4.2801 H   0  0  0  0  0  0  0  0  0  0  0  0
   -4.6848   -1.3379   -2.5549 H   0  0  0  0  0  0  0  0  0  0  0  0
   -5.8767    0.9207   -2.1131 H   0  0  0  0  0  0  0  0  0  0  0  0
   -5.8723    1.1125   -3.8751 H   0  0  0  0  0  0  0  0  0  0  0  0
   -5.2484    2.4007   -2.8461 H   0  0  0  0  0  0  0  0  0  0  0  0
   -2.7847   -1.1627   -1.1818 H   0  0  0  0  0  0  0  0  0  0  0  0
   -1.6475   -0.7229    0.8788 H   0  0  0  0  0  0  0  0  0  0  0  0
   -2.1156    3.5196    0.2686 H   0  0  0  0  0  0  0  0  0  0  0  0
   -3.2639    3.0824   -1.8418 H   0  0  0  0  0  0  0  0  0  0  0  0
   -1.6820    0.0967    2.9767 H   0  0  0  0  0  0  0  0  0  0  0  0
   -0.7196    1.2989    3.8158 H   0  0  0  0  0  0  0  0  0  0  0  0
    1.2707    1.9455    2.2247 H   0  0  0  0  0  0  0  0  0  0  0  0
    5.5926    2.4029    0.9388 H   0  0  0  0  0  0  0  0  0  0  0  0
    6.4151    0.1299    0.5267 H   0  0  0  0  0  0  0  0  0  0  0  0
    2.5998   -1.5004    1.6909 H   0  0  0  0  0  0  0  0  0  0  0  0
    4.9216   -4.6042   -0.2263 H   0  0  0  0  0  0  0  0  0  0  0  0
    3.8578   -5.1758    1.0735 H   0  0  0  0  0  0  0  0  0  0  0  0
    5.5295   -4.7145    1.4667 H   0  0  0  0  0  0  0  0  0  0  0  0
    1.8622    4.3186    0.7076 H   0  0  0  0  0  0  0  0  0  0  0  0
    2.7935    3.2240   -0.2958 H   0  0  0  0  0  0  0  0  0  0  0  0
    4.8530    4.5572    0.1006 H   0  0  0  0  0  0  0  0  0  0  0  0
    3.5574    5.6129   -0.4661 H   0  0  0  0  0  0  0  0  0  0  0  0
    3.4466    3.4120    3.8779 H   0  0  0  0  0  0  0  0  0  0  0  0
    4.9012    3.5747    2.8831 H   0  0  0  0  0  0  0  0  0  0  0  0
    4.1240    5.7743    3.6773 H   0  0  0  0  0  0  0  0  0  0  0  0
    2.5556    5.5407    2.9027 H   0  0  0  0  0  0  0  0  0  0  0  0
    6.8653    6.7927    3.0063 H   0  0  0  0  0  0  0  0  0  0  0  0
    7.3646    8.1626    5.0187 H   0  0  0  0  0  0  0  0  0  0  0  0
    5.8431   10.0169    5.6643 H   0  0  0  0  0  0  0  0  0  0  0  0
    3.8280   10.5159    4.2980 H   0  0  0  0  0  0  0  0  0  0  0  0
    3.3165    9.1433    2.2901 H   0  0  0  0  0  0  0  0  0  0  0  0
  1  2  1  0
  2  3  1  0
  2  4  1  0
  2  5  1  0
  5  6  2  0
  6  7  1  0
  7  8  2  0
  8  9  1  0
  9 10  2  0
  8 11  1  0
 11 12  1  0
 12 13  1  0
 13 14  2  0
 13 15  1  0
 15 16  1  0
 16 17  1  0
 17 18  2  0
 18 19  1  0
 19 20  2  0
 20 21  1  0
 20 22  1  0
 22 23  2  0
 22 24  1  0
 24 25  1  0
 17 26  1  0
 26 27  1  0
 27 28  1  0
 26 29  1  0
 29 30  1  0
 30 31  1  0
 31 32  1  0
 32 33  2  0
 32 34  1  0
 34 35  2  0
 35 36  1  0
 36 37  2  0
 37 38  1  0
 38 39  2  0
 10  5  1  0
 21 16  2  0
 31 28  1  0
 39 34  1  0
  1 40  1  0
  1 41  1  0
  1 42  1  0
  3 43  1  0
  3 44  1  0
  3 45  1  0
  4 46  1  0
  4 47  1  0
  4 48  1  0
  6 49  1  0
  7 50  1  0
  9 51  1  0
 10 52  1  0
 12 53  1  0
 12 54  1  0
 15 55  1  0
 18 56  1  0
 19 57  1  0
 21 58  1  0
 25 59  1  0
 25 60  1  0
 25 61  1  0
 27 62  1  0
 27 63  1  0
 28 64  1  0
 28 65  1  0
 29 66  1  0
 29 67  1  0
 30 68  1  0
 30 69  1  0
 35 70  1  0
 36 71  1  0
 37 72  1  0
 38 73  1  0
 39 74  1  0
M  END
>  <mol_id>  (6) 
OSSK_595543

>  <drugclip_rank>  (6) 
6

>  <conformer>  (6) 
17

>  <align_rmsd>  (6) 
0.822

$$$$
STK837320
     RDKit          3D

 71 74  0  0  0  0  0  0  0  0999 V2000
   -3.1131    4.1629   -4.9528 C   0  0  0  0  0  0  0  0  0  0  0  0
   -3.2978    5.4643   -5.7525 C   0  0  0  0  0  0  0  0  0  0  0  0
   -4.6270    5.9839   -5.6114 O   0  0  0  0  0  0  0  0  0  0  0  0
   -4.9219    6.2237   -4.2291 C   0  0  0  0  0  0  0  0  0  0  0  0
   -4.7658    4.9444   -3.3868 C   0  0  0  0  0  0  0  0  0  0  0  0
   -3.4093    4.3888   -3.5294 N   0  0  0  0  0  0  0  0  0  0  0  0
   -3.1566    3.2132   -2.6684 C   0  0  0  0  0  0  0  0  0  0  0  0
   -4.1850    2.0606   -2.7869 C   0  0  0  0  0  0  0  0  0  0  0  0
   -4.6667    1.7429   -3.8778 O   0  0  0  0  0  0  0  0  0  0  0  0
   -4.5851    1.5121   -1.5481 N   0  0  0  0  0  0  0  0  0  0  0  0
   -5.8294    0.8083   -1.4618 C   0  0  0  0  0  0  0  0  0  0  0  0
   -6.1900   -0.1656   -2.4030 C   0  0  0  0  0  0  0  0  0  0  0  0
   -7.4214   -0.8242   -2.3141 C   0  0  0  0  0  0  0  0  0  0  0  0
   -8.3088   -0.5054   -1.2892 C   0  0  0  0  0  0  0  0  0  0  0  0
   -7.9706    0.4688   -0.3533 C   0  0  0  0  0  0  0  0  0  0  0  0
   -6.7362    1.1295   -0.4371 C   0  0  0  0  0  0  0  0  0  0  0  0
   -6.3606    2.1751    0.5733 C   0  0  0  0  0  0  0  0  0  0  0  0
   -5.2998    1.6072    1.5008 C   0  0  0  0  0  0  0  0  0  0  0  0
   -3.9754    1.2026    0.8843 C   0  0  0  0  0  0  0  0  0  0  0  0
   -3.6432    1.2207   -0.4852 C   0  0  0  0  0  0  0  0  0  0  0  0
   -2.9956    0.7940    1.8178 C   0  0  0  0  0  0  0  0  0  0  0  0
   -1.7054    0.4373    1.4257 C   0  0  0  0  0  0  0  0  0  0  0  0
   -1.3526    0.4805    0.0862 C   0  0  0  0  0  0  0  0  0  0  0  0
   -2.3221    0.8633   -0.8506 C   0  0  0  0  0  0  0  0  0  0  0  0
   -0.0532    0.1926   -0.3867 N   0  0  0  0  0  0  0  0  0  0  0  0
    0.9613   -0.4477    0.3113 C   0  0  0  0  0  0  0  0  0  0  0  0
    0.8216   -1.0109    1.3917 O   0  0  0  0  0  0  0  0  0  0  0  0
    2.3052   -0.4024   -0.4334 C   0  0  0  0  0  0  0  0  0  0  0  0
    3.2211   -1.5900   -0.0629 C   0  0  0  0  0  0  0  0  0  0  0  0
    4.2220   -1.4284    1.0907 C   0  0  0  0  0  0  0  0  0  0  0  0
    3.6090   -1.2430    2.4659 C   0  0  0  0  0  0  0  0  0  0  0  0
    2.9396    0.9931   -0.2921 C   0  0  0  0  0  0  0  0  0  0  0  0
    4.0881    1.2387   -1.2768 C   0  0  0  0  0  0  0  0  0  0  0  0
    4.8203    2.5370   -0.9519 C   0  0  0  0  0  0  0  0  0  0  0  0
   -2.0782    3.8218   -5.0764 H   0  0  0  0  0  0  0  0  0  0  0  0
   -3.7674    3.4002   -5.3836 H   0  0  0  0  0  0  0  0  0  0  0  0
   -2.5776    6.2296   -5.4385 H   0  0  0  0  0  0  0  0  0  0  0  0
   -3.1324    5.2686   -6.8183 H   0  0  0  0  0  0  0  0  0  0  0  0
   -4.2676    7.0186   -3.8541 H   0  0  0  0  0  0  0  0  0  0  0  0
   -5.9551    6.5832   -4.1671 H   0  0  0  0  0  0  0  0  0  0  0  0
   -5.5187    4.2187   -3.7174 H   0  0  0  0  0  0  0  0  0  0  0  0
   -4.9687    5.1866   -2.3380 H   0  0  0  0  0  0  0  0  0  0  0  0
   -2.1607    2.8226   -2.8953 H   0  0  0  0  0  0  0  0  0  0  0  0
   -3.1297    3.5820   -1.6352 H   0  0  0  0  0  0  0  0  0  0  0  0
   -5.5099   -0.4463   -3.2010 H   0  0  0  0  0  0  0  0  0  0  0  0
   -7.6843   -1.5849   -3.0436 H   0  0  0  0  0  0  0  0  0  0  0  0
   -9.2703   -1.0144   -1.2244 H   0  0  0  0  0  0  0  0  0  0  0  0
   -8.6751    0.7112    0.4395 H   0  0  0  0  0  0  0  0  0  0  0  0
   -6.0062    3.0772    0.0646 H   0  0  0  0  0  0  0  0  0  0  0  0
   -7.2380    2.4814    1.1545 H   0  0  0  0  0  0  0  0  0  0  0  0
   -5.7087    0.7285    2.0190 H   0  0  0  0  0  0  0  0  0  0  0  0
   -5.0954    2.3671    2.2683 H   0  0  0  0  0  0  0  0  0  0  0  0
   -3.2378    0.7585    2.8813 H   0  0  0  0  0  0  0  0  0  0  0  0
   -0.9953    0.1592    2.2008 H   0  0  0  0  0  0  0  0  0  0  0  0
   -2.0523    0.8186   -1.9053 H   0  0  0  0  0  0  0  0  0  0  0  0
    0.1394    0.4359   -1.3516 H   0  0  0  0  0  0  0  0  0  0  0  0
    2.0501   -0.5521   -1.4939 H   0  0  0  0  0  0  0  0  0  0  0  0
    3.8151   -1.8283   -0.9561 H   0  0  0  0  0  0  0  0  0  0  0  0
    2.6068   -2.4850    0.1207 H   0  0  0  0  0  0  0  0  0  0  0  0
    4.8413   -2.3328    1.1213 H   0  0  0  0  0  0  0  0  0  0  0  0
    4.9177   -0.6040    0.8913 H   0  0  0  0  0  0  0  0  0  0  0  0
    2.9068   -2.0498    2.6974 H   0  0  0  0  0  0  0  0  0  0  0  0
    3.0888   -0.2859    2.5494 H   0  0  0  0  0  0  0  0  0  0  0  0
    4.3941   -1.2606    3.2301 H   0  0  0  0  0  0  0  0  0  0  0  0
    2.1785    1.7681   -0.4558 H   0  0  0  0  0  0  0  0  0  0  0  0
    3.2862    1.1461    0.7392 H   0  0  0  0  0  0  0  0  0  0  0  0
    3.6948    1.2933   -2.3019 H   0  0  0  0  0  0  0  0  0  0  0  0
    4.8140    0.4177   -1.2513 H   0  0  0  0  0  0  0  0  0  0  0  0
    5.6294    2.7117   -1.6728 H   0  0  0  0  0  0  0  0  0  0  0  0
    5.2635    2.4928    0.0521 H   0  0  0  0  0  0  0  0  0  0  0  0
    4.1389    3.3947   -0.9940 H   0  0  0  0  0  0  0  0  0  0  0  0
  1  2  1  0
  2  3  1  0
  3  4  1  0
  4  5  1  0
  5  6  1  0
  6  7  1  0
  7  8  1  0
  8  9  2  0
  8 10  1  0
 10 11  1  0
 11 12  2  0
 12 13  1  0
 13 14  2  0
 14 15  1  0
 11 16  1  0
 16 17  1  0
 17 18  1  0
 18 19  1  0
 19 20  2  0
 19 21  1  0
 21 22  2  0
 22 23  1  0
 23 24  2  0
 23 25  1  0
 25 26  1  0
 26 27  2  0
 26 28  1  0
 28 29  1  0
 29 30  1  0
 30 31  1  0
 28 32  1  0
 32 33  1  0
 33 34  1  0
  6  1  1  0
 20 10  1  0
 16 15  2  0
 24 20  1  0
  1 35  1  0
  1 36  1  0
  2 37  1  0
  2 38  1  0
  4 39  1  0
  4 40  1  0
  5 41  1  0
  5 42  1  0
  7 43  1  0
  7 44  1  0
 12 45  1  0
 13 46  1  0
 14 47  1  0
 15 48  1  0
 17 49  1  0
 17 50  1  0
 18 51  1  0
 18 52  1  0
 21 53  1  0
 22 54  1  0
 24 55  1  0
 25 56  1  0
 28 57  1  0
 29 58  1  0
 29 59  1  0
 30 60  1  0
 30 61  1  0
 31 62  1  0
 31 63  1  0
 31 64  1  0
 32 65  1  0
 32 66  1  0
 33 67  1  0
 33 68  1  0
 34 69  1  0
 34 70  1  0
 34 71  1  0
M  END
>  <mol_id>  (7) 
STK837320

>  <drugclip_rank>  (7) 
7

>  <conformer>  (7) 
29

>  <align_rmsd>  (7) 
0.645

$$$$
Z3688957256
     RDKit          3D

 72 75  0  0  0  0  0  0  0  0999 V2000
    9.7402   -1.5433   -0.3956 C   0  0  0  0  0  0  0  0  0  0  0  0
    9.7512   -2.0400    1.0465 C   0  0  0  0  0  0  0  0  0  0  0  0
    8.4431   -2.1914    1.6827 N   0  0  0  0  0  0  0  0  0  0  0  0
    7.6854   -0.9429    1.8190 C   0  0  0  0  0  0  0  0  0  0  0  0
    6.3571   -1.1759    2.5687 C   0  0  0  0  0  0  0  0  0  0  0  0
    5.5340   -2.2313    1.9701 N   0  0  0  0  0  0  0  0  0  0  0  0
    6.1546   -2.9758    0.8724 C   0  0  0  0  0  0  0  0  0  0  0  0
    7.6367   -3.3034    1.1463 C   0  0  0  0  0  0  0  0  0  0  0  0
    4.1936   -2.4581    2.2620 C   0  0  0  0  0  0  0  0  0  0  0  0
    3.5230   -3.2422    1.5878 O   0  0  0  0  0  0  0  0  0  0  0  0
    3.5852   -1.7498    3.4575 C   0  0  0  0  0  0  0  0  0  0  0  0
    2.8619   -0.5485    3.0839 N   0  0  0  0  0  0  0  0  0  0  0  0
    3.1740    0.7326    3.4400 C   0  0  0  0  0  0  0  0  0  0  0  0
    2.1669    1.5207    2.9320 C   0  0  0  0  0  0  0  0  0  0  0  0
    1.2726    0.6253    2.3123 C   0  0  0  0  0  0  0  0  0  0  0  0
    1.6851   -0.6387    2.4370 N   0  0  0  0  0  0  0  0  0  0  0  0
    0.0975    0.8589    1.6459 N   0  0  0  0  0  0  0  0  0  0  0  0
   -0.5504    2.0697    1.5529 C   0  0  0  0  0  0  0  0  0  0  0  0
   -0.1672    3.1083    2.0792 O   0  0  0  0  0  0  0  0  0  0  0  0
   -1.6957    1.9479    0.7864 N   0  0  0  0  0  0  0  0  0  0  0  0
   -2.6865    2.9248    0.5413 C   0  0  0  0  0  0  0  0  0  0  0  0
   -2.7551    4.1532    1.1928 C   0  0  0  0  0  0  0  0  0  0  0  0
   -3.7890    5.0395    0.8876 C   0  0  0  0  0  0  0  0  0  0  0  0
   -4.7285    4.6684   -0.0606 C   0  0  0  0  0  0  0  0  0  0  0  0
   -4.7076    3.4887   -0.7109 N   0  0  0  0  0  0  0  0  0  0  0  0
   -3.6983    2.6427   -0.3885 C   0  0  0  0  0  0  0  0  0  0  0  0
   -3.5868    1.4315   -1.0739 O   0  0  0  0  0  0  0  0  0  0  0  0
   -4.7559    0.8344   -1.4923 C   0  0  0  0  0  0  0  0  0  0  0  0
   -5.7220    0.5061   -0.5257 C   0  0  0  0  0  0  0  0  0  0  0  0
   -6.8813   -0.1688   -0.8880 C   0  0  0  0  0  0  0  0  0  0  0  0
   -7.0709   -0.5334   -2.2129 C   0  0  0  0  0  0  0  0  0  0  0  0
   -6.0991   -0.2297   -3.1739 C   0  0  0  0  0  0  0  0  0  0  0  0
   -4.9108    0.4590   -2.8471 C   0  0  0  0  0  0  0  0  0  0  0  0
   -3.8522    0.7765   -3.9292 C   0  0  0  0  0  0  0  0  0  0  0  0
   -2.5311    0.0411   -3.6165 C   0  0  0  0  0  0  0  0  0  0  0  0
   -3.5947    2.2966   -4.0127 C   0  0  0  0  0  0  0  0  0  0  0  0
   -4.2720    0.3355   -5.3556 C   0  0  0  0  0  0  0  0  0  0  0  0
    9.3504   -0.5241   -0.4725 H   0  0  0  0  0  0  0  0  0  0  0  0
   10.7603   -1.5319   -0.7924 H   0  0  0  0  0  0  0  0  0  0  0  0
    9.1417   -2.1875   -1.0468 H   0  0  0  0  0  0  0  0  0  0  0  0
   10.3597   -1.3535    1.6489 H   0  0  0  0  0  0  0  0  0  0  0  0
   10.2772   -3.0025    1.0854 H   0  0  0  0  0  0  0  0  0  0  0  0
    7.4611   -0.5125    0.8352 H   0  0  0  0  0  0  0  0  0  0  0  0
    8.2726   -0.2037    2.3749 H   0  0  0  0  0  0  0  0  0  0  0  0
    5.7811   -0.2460    2.5811 H   0  0  0  0  0  0  0  0  0  0  0  0
    6.5575   -1.4656    3.6074 H   0  0  0  0  0  0  0  0  0  0  0  0
    6.0663   -2.3551   -0.0269 H   0  0  0  0  0  0  0  0  0  0  0  0
    5.6070   -3.9044    0.6806 H   0  0  0  0  0  0  0  0  0  0  0  0
    7.6759   -4.1038    1.8960 H   0  0  0  0  0  0  0  0  0  0  0  0
    8.0665   -3.7256    0.2308 H   0  0  0  0  0  0  0  0  0  0  0  0
    2.8744   -2.4280    3.9436 H   0  0  0  0  0  0  0  0  0  0  0  0
    4.3389   -1.4887    4.2063 H   0  0  0  0  0  0  0  0  0  0  0  0
    4.0579    0.9778    4.0098 H   0  0  0  0  0  0  0  0  0  0  0  0
    2.0851    2.5947    3.0155 H   0  0  0  0  0  0  0  0  0  0  0  0
   -0.3586    0.0075    1.3570 H   0  0  0  0  0  0  0  0  0  0  0  0
   -1.7824    1.1053    0.2317 H   0  0  0  0  0  0  0  0  0  0  0  0
   -2.0292    4.4460    1.9437 H   0  0  0  0  0  0  0  0  0  0  0  0
   -3.8549    6.0015    1.3844 H   0  0  0  0  0  0  0  0  0  0  0  0
   -5.5437    5.3330   -0.3311 H   0  0  0  0  0  0  0  0  0  0  0  0
   -5.5707    0.7782    0.5154 H   0  0  0  0  0  0  0  0  0  0  0  0
   -7.6295   -0.4122   -0.1395 H   0  0  0  0  0  0  0  0  0  0  0  0
   -7.9728   -1.0647   -2.5062 H   0  0  0  0  0  0  0  0  0  0  0  0
   -6.3045   -0.5568   -4.1889 H   0  0  0  0  0  0  0  0  0  0  0  0
   -2.6917   -1.0403   -3.5455 H   0  0  0  0  0  0  0  0  0  0  0  0
   -2.0769    0.3669   -2.6762 H   0  0  0  0  0  0  0  0  0  0  0  0
   -1.7866    0.2164   -4.4032 H   0  0  0  0  0  0  0  0  0  0  0  0
   -2.9839    2.5517   -4.8874 H   0  0  0  0  0  0  0  0  0  0  0  0
   -3.0532    2.6806   -3.1456 H   0  0  0  0  0  0  0  0  0  0  0  0
   -4.5355    2.8535   -4.0959 H   0  0  0  0  0  0  0  0  0  0  0  0
   -4.4145   -0.7497   -5.4197 H   0  0  0  0  0  0  0  0  0  0  0  0
   -3.5041    0.5995   -6.0945 H   0  0  0  0  0  0  0  0  0  0  0  0
   -5.2013    0.8272   -5.6703 H   0  0  0  0  0  0  0  0  0  0  0  0
  1  2  1  0
  2  3  1  0
  3  4  1  0
  4  5  1  0
  5  6  1  0
  6  7  1  0
  7  8  1  0
  6  9  1  0
  9 10  2  0
  9 11  1  0
 11 12  1  0
 12 13  1  0
 13 14  2  0
 14 15  1  0
 15 16  2  0
 15 17  1  0
 17 18  1  0
 18 19  2  0
 18 20  1  0
 20 21  1  0
 21 22  2  0
 22 23  1  0
 23 24  2  0
 24 25  1  0
 25 26  2  0
 26 27  1  0
 27 28  1  0
 28 29  2  0
 29 30  1  0
 30 31  2  0
 31 32  1  0
 32 33  2  0
 33 34  1  0
 34 35  1  0
 34 36  1  0
 34 37  1  0
  8  3  1  0
 16 12  1  0
 26 21  1  0
 33 28  1  0
  1 38  1  0
  1 39  1  0
  1 40  1  0
  2 41  1  0
  2 42  1  0
  4 43  1  0
  4 44  1  0
  5 45  1  0
  5 46  1  0
  7 47  1  0
  7 48  1  0
  8 49  1  0
  8 50  1  0
 11 51  1  0
 11 52  1  0
 13 53  1  0
 14 54  1  0
 17 55  1  0
 20 56  1  0
 22 57  1  0
 23 58  1  0
 24 59  1  0
 29 60  1  0
 30 61  1  0
 31 62  1  0
 32 63  1  0
 35 64  1  0
 35 65  1  0
 35 66  1  0
 36 67  1  0
 36 68  1  0
 36 69  1  0
 37 70  1  0
 37 71  1  0
 37 72  1  0
M  END
>  <mol_id>  (8) 
Z3688957256

>  <drugclip_rank>  (8) 
8

>  <conformer>  (8) 
31

>  <align_rmsd>  (8) 
1.442

$$$$
3966-0064
     RDKit          3D

 75 78  0  0  0  0  0  0  0  0999 V2000
   -3.3921    0.8490    4.9862 C   0  0  0  0  0  0  0  0  0  0  0  0
   -3.0632   -0.0260    6.2242 C   0  0  0  0  0  0  0  0  0  0  0  0
   -4.0299   -1.1077    6.4768 N   0  0  0  0  0  0  0  0  0  0  0  0
   -3.9649   -1.5768    7.8552 C   0  0  0  0  0  0  0  0  0  0  0  0
   -5.3858   -0.6924    6.0957 C   0  0  0  0  0  0  0  0  0  0  0  0
   -5.4961   -0.2620    4.6048 C   0  0  0  0  0  0  0  0  0  0  0  0
   -4.2479    0.2206    3.9661 N   0  0  0  0  0  0  0  0  0  0  0  0
   -3.5306   -0.8999    3.3042 C   0  0  0  0  0  0  0  0  0  0  0  0
   -4.1941   -1.2428    1.9508 C   0  0  0  0  0  0  0  0  0  0  0  0
   -4.7243   -2.3533    1.8168 O   0  0  0  0  0  0  0  0  0  0  0  0
   -4.2812   -0.2071    0.9967 N   0  0  0  0  0  0  0  0  0  0  0  0
   -5.1783   -0.3412   -0.1057 C   0  0  0  0  0  0  0  0  0  0  0  0
   -5.1697   -1.4904   -0.9083 C   0  0  0  0  0  0  0  0  0  0  0  0
   -6.0546   -1.6142   -1.9801 C   0  0  0  0  0  0  0  0  0  0  0  0
   -6.9715   -0.6000   -2.2481 C   0  0  0  0  0  0  0  0  0  0  0  0
   -7.0178    0.5295   -1.4337 C   0  0  0  0  0  0  0  0  0  0  0  0
   -6.1290    0.6600   -0.3562 C   0  0  0  0  0  0  0  0  0  0  0  0
   -6.2024    1.8437    0.5645 C   0  0  0  0  0  0  0  0  0  0  0  0
   -5.0058    2.7552    0.3473 C   0  0  0  0  0  0  0  0  0  0  0  0
   -3.6197    2.1786    0.5420 C   0  0  0  0  0  0  0  0  0  0  0  0
   -3.3066    0.8420    0.8628 C   0  0  0  0  0  0  0  0  0  0  0  0
   -2.5655    3.1072    0.4029 C   0  0  0  0  0  0  0  0  0  0  0  0
   -1.2326    2.7367    0.5745 C   0  0  0  0  0  0  0  0  0  0  0  0
   -0.9100    1.4194    0.8849 C   0  0  0  0  0  0  0  0  0  0  0  0
   -1.9433    0.4868    0.9889 C   0  0  0  0  0  0  0  0  0  0  0  0
    0.4546    1.1125    1.0645 N   0  0  0  0  0  0  0  0  0  0  0  0
    0.9965   -0.0805    1.5095 C   0  0  0  0  0  0  0  0  0  0  0  0
    0.3663   -1.0833    1.8332 O   0  0  0  0  0  0  0  0  0  0  0  0
    2.5258   -0.0688    1.6239 C   0  0  0  0  0  0  0  0  0  0  0  0
    3.2132    0.2047    0.2731 C   0  0  0  0  0  0  0  0  0  0  0  0
    2.8700   -0.8487   -0.7857 C   0  0  0  0  0  0  0  0  0  0  0  0
    3.6489   -0.6132   -2.0707 C   0  0  0  0  0  0  0  0  0  0  0  0
    2.9485    0.9295    2.7205 C   0  0  0  0  0  0  0  0  0  0  0  0
    4.3869    0.7236    3.2006 C   0  0  0  0  0  0  0  0  0  0  0  0
    4.7206    1.6419    4.3654 C   0  0  0  0  0  0  0  0  0  0  0  0
   -3.9112    1.7531    5.3342 H   0  0  0  0  0  0  0  0  0  0  0  0
   -2.4609    1.2112    4.5329 H   0  0  0  0  0  0  0  0  0  0  0  0
   -2.0773   -0.4831    6.0808 H   0  0  0  0  0  0  0  0  0  0  0  0
   -2.9866    0.6447    7.0910 H   0  0  0  0  0  0  0  0  0  0  0  0
   -4.2587   -0.8008    8.5717 H   0  0  0  0  0  0  0  0  0  0  0  0
   -4.6219   -2.4409    7.9976 H   0  0  0  0  0  0  0  0  0  0  0  0
   -2.9490   -1.9062    8.1007 H   0  0  0  0  0  0  0  0  0  0  0  0
   -5.7085    0.1457    6.7286 H   0  0  0  0  0  0  0  0  0  0  0  0
   -6.0904   -1.5156    6.2664 H   0  0  0  0  0  0  0  0  0  0  0  0
   -5.9369   -1.0818    4.0238 H   0  0  0  0  0  0  0  0  0  0  0  0
   -6.2288    0.5534    4.5486 H   0  0  0  0  0  0  0  0  0  0  0  0
   -3.5330   -1.8079    3.9189 H   0  0  0  0  0  0  0  0  0  0  0  0
   -2.4782   -0.6610    3.1484 H   0  0  0  0  0  0  0  0  0  0  0  0
   -4.4593   -2.2910   -0.7145 H   0  0  0  0  0  0  0  0  0  0  0  0
   -6.0254   -2.5030   -2.6037 H   0  0  0  0  0  0  0  0  0  0  0  0
   -7.6590   -0.6996   -3.0826 H   0  0  0  0  0  0  0  0  0  0  0  0
   -7.7515    1.3064   -1.6387 H   0  0  0  0  0  0  0  0  0  0  0  0
   -6.2619    1.5034    1.6053 H   0  0  0  0  0  0  0  0  0  0  0  0
   -7.1247    2.4110    0.3825 H   0  0  0  0  0  0  0  0  0  0  0  0
   -5.0551    3.1558   -0.6757 H   0  0  0  0  0  0  0  0  0  0  0  0
   -5.1158    3.6080    1.0302 H   0  0  0  0  0  0  0  0  0  0  0  0
   -2.7900    4.1458    0.1627 H   0  0  0  0  0  0  0  0  0  0  0  0
   -0.4631    3.4956    0.4712 H   0  0  0  0  0  0  0  0  0  0  0  0
   -1.6975   -0.5618    1.1274 H   0  0  0  0  0  0  0  0  0  0  0  0
    1.0976    1.8768    0.9115 H   0  0  0  0  0  0  0  0  0  0  0  0
    2.8139   -1.0773    1.9530 H   0  0  0  0  0  0  0  0  0  0  0  0
    2.9453    1.1985   -0.1050 H   0  0  0  0  0  0  0  0  0  0  0  0
    4.2997    0.2075    0.4122 H   0  0  0  0  0  0  0  0  0  0  0  0
    1.7982   -0.8249   -1.0132 H   0  0  0  0  0  0  0  0  0  0  0  0
    3.1016   -1.8499   -0.4054 H   0  0  0  0  0  0  0  0  0  0  0  0
    4.7266   -0.6922   -1.8948 H   0  0  0  0  0  0  0  0  0  0  0  0
    3.3734   -1.3559   -2.8270 H   0  0  0  0  0  0  0  0  0  0  0  0
    3.4390    0.3795   -2.4819 H   0  0  0  0  0  0  0  0  0  0  0  0
    2.8347    1.9595    2.3599 H   0  0  0  0  0  0  0  0  0  0  0  0
    2.2716    0.8282    3.5785 H   0  0  0  0  0  0  0  0  0  0  0  0
    4.5318   -0.3164    3.5133 H   0  0  0  0  0  0  0  0  0  0  0  0
    5.0908    0.9201    2.3861 H   0  0  0  0  0  0  0  0  0  0  0  0
    4.5988    2.6957    4.0883 H   0  0  0  0  0  0  0  0  0  0  0  0
    4.0731    1.4381    5.2244 H   0  0  0  0  0  0  0  0  0  0  0  0
    5.7568    1.4908    4.6818 H   0  0  0  0  0  0  0  0  0  0  0  0
  1  2  1  0
  2  3  1  0
  3  4  1  0
  3  5  1  0
  5  6  1  0
  6  7  1  0
  7  8  1  0
  8  9  1  0
  9 10  2  0
  9 11  1  0
 11 12  1  0
 12 13  2  0
 13 14  1  0
 14 15  2  0
 15 16  1  0
 12 17  1  0
 17 18  1  0
 18 19  1  0
 19 20  1  0
 20 21  2  0
 20 22  1  0
 22 23  2  0
 23 24  1  0
 24 25  2  0
 24 26  1  0
 26 27  1  0
 27 28  2  0
 27 29  1  0
 29 30  1  0
 30 31  1  0
 31 32  1  0
 29 33  1  0
 33 34  1  0
 34 35  1  0
  7  1  1  0
 21 11  1  0
 17 16  2  0
 25 21  1  0
  1 36  1  0
  1 37  1  0
  2 38  1  0
  2 39  1  0
  4 40  1  0
  4 41  1  0
  4 42  1  0
  5 43  1  0
  5 44  1  0
  6 45  1  0
  6 46  1  0
  8 47  1  0
  8 48  1  0
 13 49  1  0
 14 50  1  0
 15 51  1  0
 16 52  1  0
 18 53  1  0
 18 54  1  0
 19 55  1  0
 19 56  1  0
 22 57  1  0
 23 58  1  0
 25 59  1  0
 26 60  1  0
 29 61  1  0
 30 62  1  0
 30 63  1  0
 31 64  1  0
 31 65  1  0
 32 66  1  0
 32 67  1  0
 32 68  1  0
 33 69  1  0
 33 70  1  0
 34 71  1  0
 34 72  1  0
 35 73  1  0
 35 74  1  0
 35 75  1  0
M  END
>  <mol_id>  (9) 
3966-0064

>  <drugclip_rank>  (9) 
9

>  <conformer>  (9) 
20

>  <align_rmsd>  (9) 
0.597

$$$$
Z234893357
     RDKit          3D

 73 76  0  0  0  0  0  0  0  0999 V2000
   -8.1147    0.8171    1.6814 C   0  0  0  0  0  0  0  0  0  0  0  0
   -8.0081    0.9329    0.1680 C   0  0  0  0  0  0  0  0  0  0  0  0
   -6.5843    1.1779   -0.3309 C   0  0  0  0  0  0  0  0  0  0  0  0
   -5.9431    2.4460    0.2331 C   0  0  0  0  0  0  0  0  0  0  0  0
   -4.7033    2.7250   -0.4204 O   0  0  0  0  0  0  0  0  0  0  0  0
   -3.5672    2.1051    0.0156 C   0  0  0  0  0  0  0  0  0  0  0  0
   -2.4109    2.4623   -0.6857 C   0  0  0  0  0  0  0  0  0  0  0  0
   -1.1721    1.9021   -0.3612 C   0  0  0  0  0  0  0  0  0  0  0  0
   -1.0812    0.9722    0.6785 C   0  0  0  0  0  0  0  0  0  0  0  0
   -2.2383    0.6037    1.3748 C   0  0  0  0  0  0  0  0  0  0  0  0
   -3.4745    1.1748    1.0501 C   0  0  0  0  0  0  0  0  0  0  0  0
    0.2132    0.3341    1.0557 C   0  0  0  0  0  0  0  0  0  0  0  0
    0.2015   -0.7973    1.5267 O   0  0  0  0  0  0  0  0  0  0  0  0
    1.3216    1.1303    0.8790 N   0  0  0  0  0  0  0  0  0  0  0  0
    2.6725    0.8024    1.1088 C   0  0  0  0  0  0  0  0  0  0  0  0
    3.1303   -0.4950    1.3258 C   0  0  0  0  0  0  0  0  0  0  0  0
    4.4893   -0.7079    1.5674 C   0  0  0  0  0  0  0  0  0  0  0  0
    5.0894   -2.3586    1.8335 S   0  0  0  0  0  0  0  0  0  0  0  0
    6.4633   -2.3946    1.3743 O   0  0  0  0  0  0  0  0  0  0  0  0
    4.1159   -3.2942    1.3167 O   0  0  0  0  0  0  0  0  0  0  0  0
    5.1073   -2.4816    3.5322 N   0  0  0  0  0  0  0  0  0  0  0  0
    3.7837   -2.4560    4.2360 C   0  0  0  0  0  0  0  0  0  0  0  0
    3.1102   -3.8346    4.2523 C   0  0  0  0  0  0  0  0  0  0  0  0
    3.9759   -4.8344    4.8105 O   0  0  0  0  0  0  0  0  0  0  0  0
    5.1892   -4.9282    4.0484 C   0  0  0  0  0  0  0  0  0  0  0  0
    5.9477   -3.5984    4.0703 C   0  0  0  0  0  0  0  0  0  0  0  0
    5.3985    0.3556    1.5556 C   0  0  0  0  0  0  0  0  0  0  0  0
    4.9423    1.6518    1.3117 C   0  0  0  0  0  0  0  0  0  0  0  0
    3.5794    1.8908    1.0830 C   0  0  0  0  0  0  0  0  0  0  0  0
    3.0599    3.1975    0.8577 N   0  0  0  0  0  0  0  0  0  0  0  0
    3.7174    3.9113   -0.2446 C   0  0  0  0  0  0  0  0  0  0  0  0
    2.6391    4.5609   -1.1140 C   0  0  0  0  0  0  0  0  0  0  0  0
    1.9526    5.7752   -0.4896 C   0  0  0  0  0  0  0  0  0  0  0  0
    1.3567    5.5515    0.9024 C   0  0  0  0  0  0  0  0  0  0  0  0
    2.4280    5.3584    1.9750 C   0  0  0  0  0  0  0  0  0  0  0  0
    2.9237    3.9195    2.1351 C   0  0  0  0  0  0  0  0  0  0  0  0
   -7.4052    0.0803    2.0750 H   0  0  0  0  0  0  0  0  0  0  0  0
   -9.1247    0.5028    1.9643 H   0  0  0  0  0  0  0  0  0  0  0  0
   -7.9199    1.7795    2.1672 H   0  0  0  0  0  0  0  0  0  0  0  0
   -8.6668    1.7373   -0.1814 H   0  0  0  0  0  0  0  0  0  0  0  0
   -8.3784    0.0032   -0.2807 H   0  0  0  0  0  0  0  0  0  0  0  0
   -6.5970    1.2400   -1.4270 H   0  0  0  0  0  0  0  0  0  0  0  0
   -5.9621    0.3058   -0.0980 H   0  0  0  0  0  0  0  0  0  0  0  0
   -5.8257    2.4231    1.3223 H   0  0  0  0  0  0  0  0  0  0  0  0
   -6.5979    3.2988    0.0191 H   0  0  0  0  0  0  0  0  0  0  0  0
   -2.4811    3.1761   -1.5039 H   0  0  0  0  0  0  0  0  0  0  0  0
   -0.3021    2.1789   -0.9503 H   0  0  0  0  0  0  0  0  0  0  0  0
   -2.1808   -0.1324    2.1751 H   0  0  0  0  0  0  0  0  0  0  0  0
   -4.3414    0.8580    1.6199 H   0  0  0  0  0  0  0  0  0  0  0  0
    1.2008    2.1207    0.6812 H   0  0  0  0  0  0  0  0  0  0  0  0
    2.4490   -1.3410    1.3002 H   0  0  0  0  0  0  0  0  0  0  0  0
    3.9839   -2.1390    5.2678 H   0  0  0  0  0  0  0  0  0  0  0  0
    3.1168   -1.7049    3.8083 H   0  0  0  0  0  0  0  0  0  0  0  0
    2.7904   -4.1540    3.2558 H   0  0  0  0  0  0  0  0  0  0  0  0
    2.2137   -3.7935    4.8796 H   0  0  0  0  0  0  0  0  0  0  0  0
    5.8034   -5.7088    4.5078 H   0  0  0  0  0  0  0  0  0  0  0  0
    4.9540   -5.2506    3.0281 H   0  0  0  0  0  0  0  0  0  0  0  0
    6.8930   -3.6784    3.5252 H   0  0  0  0  0  0  0  0  0  0  0  0
    6.2040   -3.3365    5.1051 H   0  0  0  0  0  0  0  0  0  0  0  0
    6.4581    0.1791    1.7304 H   0  0  0  0  0  0  0  0  0  0  0  0
    5.6532    2.4737    1.3112 H   0  0  0  0  0  0  0  0  0  0  0  0
    4.2723    3.2184   -0.8902 H   0  0  0  0  0  0  0  0  0  0  0  0
    4.4383    4.6517    0.1214 H   0  0  0  0  0  0  0  0  0  0  0  0
    1.8777    3.8144   -1.3735 H   0  0  0  0  0  0  0  0  0  0  0  0
    3.0970    4.8789   -2.0584 H   0  0  0  0  0  0  0  0  0  0  0  0
    1.1479    6.0925   -1.1641 H   0  0  0  0  0  0  0  0  0  0  0  0
    2.6629    6.6108   -0.4496 H   0  0  0  0  0  0  0  0  0  0  0  0
    0.7772    6.4472    1.1593 H   0  0  0  0  0  0  0  0  0  0  0  0
    0.6505    4.7143    0.8939 H   0  0  0  0  0  0  0  0  0  0  0  0
    3.2804    6.0207    1.7734 H   0  0  0  0  0  0  0  0  0  0  0  0
    2.0246    5.6805    2.9443 H   0  0  0  0  0  0  0  0  0  0  0  0
    3.8763    3.9419    2.6824 H   0  0  0  0  0  0  0  0  0  0  0  0
    2.2026    3.3830    2.7672 H   0  0  0  0  0  0  0  0  0  0  0  0
  1  2  1  0
  2  3  1  0
  3  4  1  0
  4  5  1  0
  5  6  1  0
  6  7  2  0
  7  8  1  0
  8  9  2  0
  9 10  1  0
 10 11  2  0
  9 12  1  0
 12 13  2  0
 12 14  1  0
 14 15  1  0
 15 16  2  0
 16 17  1  0
 17 18  1  0
 18 19  2  0
 18 20  2  0
 18 21  1  0
 21 22  1  0
 22 23  1  0
 23 24  1  0
 24 25  1  0
 25 26  1  0
 17 27  2  0
 27 28  1  0
 28 29  2  0
 29 30  1  0
 30 31  1  0
 31 32  1  0
 32 33  1  0
 33 34  1  0
 34 35  1  0
 35 36  1  0
 11  6  1  0
 29 15  1  0
 26 21  1  0
 36 30  1  0
  1 37  1  0
  1 38  1  0
  1 39  1  0
  2 40  1  0
  2 41  1  0
  3 42  1  0
  3 43  1  0
  4 44  1  0
  4 45  1  0
  7 46  1  0
  8 47  1  0
 10 48  1  0
 11 49  1  0
 14 50  1  0
 16 51  1  0
 22 52  1  0
 22 53  1  0
 23 54  1  0
 23 55  1  0
 25 56  1  0
 25 57  1  0
 26 58  1  0
 26 59  1  0
 27 60  1  0
 28 61  1  0
 31 62  1  0
 31 63  1  0
 32 64  1  0
 32 65  1  0
 33 66  1  0
 33 67  1  0
 34 68  1  0
 34 69  1  0
 35 70  1  0
 35 71  1  0
 36 72  1  0
 36 73  1  0
M  END
>  <mol_id>  (10) 
Z234893357

>  <drugclip_rank>  (10) 
10

>  <conformer>  (10) 
1

>  <align_rmsd>  (10) 
0.51

$$$$
OSSL_457771
     RDKit          3D

 75 78  0  0  0  0  0  0  0  0999 V2000
   -3.3921    0.8490    4.9862 C   0  0  0  0  0  0  0  0  0  0  0  0
   -3.0632   -0.0260    6.2242 C   0  0  0  0  0  0  0  0  0  0  0  0
   -4.0299   -1.1077    6.4768 N   0  0  0  0  0  0  0  0  0  0  0  0
   -3.9649   -1.5768    7.8552 C   0  0  0  0  0  0  0  0  0  0  0  0
   -5.3858   -0.6924    6.0957 C   0  0  0  0  0  0  0  0  0  0  0  0
   -5.4961   -0.2620    4.6048 C   0  0  0  0  0  0  0  0  0  0  0  0
   -4.2479    0.2206    3.9661 N   0  0  0  0  0  0  0  0  0  0  0  0
   -3.5306   -0.8999    3.3042 C   0  0  0  0  0  0  0  0  0  0  0  0
   -4.1941   -1.2428    1.9508 C   0  0  0  0  0  0  0  0  0  0  0  0
   -4.7243   -2.3533    1.8168 O   0  0  0  0  0  0  0  0  0  0  0  0
   -4.2812   -0.2071    0.9967 N   0  0  0  0  0  0  0  0  0  0  0  0
   -5.1783   -0.3412   -0.1057 C   0  0  0  0  0  0  0  0  0  0  0  0
   -5.1697   -1.4904   -0.9083 C   0  0  0  0  0  0  0  0  0  0  0  0
   -6.0546   -1.6142   -1.9801 C   0  0  0  0  0  0  0  0  0  0  0  0
   -6.9715   -0.6000   -2.2481 C   0  0  0  0  0  0  0  0  0  0  0  0
   -7.0178    0.5295   -1.4337 C   0  0  0  0  0  0  0  0  0  0  0  0
   -6.1290    0.6600   -0.3562 C   0  0  0  0  0  0  0  0  0  0  0  0
   -6.2024    1.8437    0.5645 C   0  0  0  0  0  0  0  0  0  0  0  0
   -5.0058    2.7552    0.3473 C   0  0  0  0  0  0  0  0  0  0  0  0
   -3.6197    2.1786    0.5420 C   0  0  0  0  0  0  0  0  0  0  0  0
   -3.3066    0.8420    0.8628 C   0  0  0  0  0  0  0  0  0  0  0  0
   -2.5655    3.1072    0.4029 C   0  0  0  0  0  0  0  0  0  0  0  0
   -1.2326    2.7367    0.5745 C   0  0  0  0  0  0  0  0  0  0  0  0
   -0.9100    1.4194    0.8849 C   0  0  0  0  0  0  0  0  0  0  0  0
   -1.9433    0.4868    0.9889 C   0  0  0  0  0  0  0  0  0  0  0  0
    0.4546    1.1125    1.0645 N   0  0  0  0  0  0  0  0  0  0  0  0
    0.9965   -0.0805    1.5095 C   0  0  0  0  0  0  0  0  0  0  0  0
    0.3663   -1.0833    1.8332 O   0  0  0  0  0  0  0  0  0  0  0  0
    2.5258   -0.0688    1.6239 C   0  0  0  0  0  0  0  0  0  0  0  0
    3.2132    0.2047    0.2731 C   0  0  0  0  0  0  0  0  0  0  0  0
    2.8700   -0.8487   -0.7857 C   0  0  0  0  0  0  0  0  0  0  0  0
    3.6489   -0.6132   -2.0707 C   0  0  0  0  0  0  0  0  0  0  0  0
    2.9485    0.9295    2.7205 C   0  0  0  0  0  0  0  0  0  0  0  0
    4.3869    0.7236    3.2006 C   0  0  0  0  0  0  0  0  0  0  0  0
    4.7206    1.6419    4.3654 C   0  0  0  0  0  0  0  0  0  0  0  0
   -3.9112    1.7531    5.3342 H   0  0  0  0  0  0  0  0  0  0  0  0
   -2.4609    1.2112    4.5329 H   0  0  0  0  0  0  0  0  0  0  0  0
   -2.0773   -0.4831    6.0808 H   0  0  0  0  0  0  0  0  0  0  0  0
   -2.9866    0.6447    7.0910 H   0  0  0  0  0  0  0  0  0  0  0  0
   -4.2587   -0.8008    8.5717 H   0  0  0  0  0  0  0  0  0  0  0  0
   -4.6219   -2.4409    7.9976 H   0  0  0  0  0  0  0  0  0  0  0  0
   -2.9490   -1.9062    8.1007 H   0  0  0  0  0  0  0  0  0  0  0  0
   -5.7085    0.1457    6.7286 H   0  0  0  0  0  0  0  0  0  0  0  0
   -6.0904   -1.5156    6.2664 H   0  0  0  0  0  0  0  0  0  0  0  0
   -5.9369   -1.0818    4.0238 H   0  0  0  0  0  0  0  0  0  0  0  0
   -6.2288    0.5534    4.5486 H   0  0  0  0  0  0  0  0  0  0  0  0
   -3.5330   -1.8079    3.9189 H   0  0  0  0  0  0  0  0  0  0  0  0
   -2.4782   -0.6610    3.1484 H   0  0  0  0  0  0  0  0  0  0  0  0
   -4.4593   -2.2910   -0.7145 H   0  0  0  0  0  0  0  0  0  0  0  0
   -6.0254   -2.5030   -2.6037 H   0  0  0  0  0  0  0  0  0  0  0  0
   -7.6590   -0.6996   -3.0826 H   0  0  0  0  0  0  0  0  0  0  0  0
   -7.7515    1.3064   -1.6387 H   0  0  0  0  0  0  0  0  0  0  0  0
   -6.2619    1.5034    1.6053 H   0  0  0  0  0  0  0  0  0  0  0  0
   -7.1247    2.4110    0.3825 H   0  0  0  0  0  0  0  0  0  0  0  0
   -5.0551    3.1558   -0.6757 H   0  0  0  0  0  0  0  0  0  0  0  0
   -5.1158    3.6080    1.0302 H   0  0  0  0  0  0  0  0  0  0  0  0
   -2.7900    4.1458    0.1627 H   0  0  0  0  0  0  0  0  0  0  0  0
   -0.4631    3.4956    0.4712 H   0  0  0  0  0  0  0  0  0  0  0  0
   -1.6975   -0.5618    1.1274 H   0  0  0  0  0  0  0  0  0  0  0  0
    1.0976    1.8768    0.9115 H   0  0  0  0  0  0  0  0  0  0  0  0
    2.8139   -1.0773    1.9530 H   0  0  0  0  0  0  0  0  0  0  0  0
    2.9453    1.1985   -0.1050 H   0  0  0  0  0  0  0  0  0  0  0  0
    4.2997    0.2075    0.4122 H   0  0  0  0  0  0  0  0  0  0  0  0
    1.7982   -0.8249   -1.0132 H   0  0  0  0  0  0  0  0  0  0  0  0
    3.1016   -1.8499   -0.4054 H   0  0  0  0  0  0  0  0  0  0  0  0
    4.7266   -0.6922   -1.8948 H   0  0  0  0  0  0  0  0  0  0  0  0
    3.3734   -1.3559   -2.8270 H   0  0  0  0  0  0  0  0  0  0  0  0
    3.4390    0.3795   -2.4819 H   0  0  0  0  0  0  0  0  0  0  0  0
    2.8347    1.9595    2.3599 H   0  0  0  0  0  0  0  0  0  0  0  0
    2.2716    0.8282    3.5785 H   0  0  0  0  0  0  0  0  0  0  0  0
    4.5318   -0.3164    3.5133 H   0  0  0  0  0  0  0  0  0  0  0  0
    5.0908    0.9201    2.3861 H   0  0  0  0  0  0  0  0  0  0  0  0
    4.5988    2.6957    4.0883 H   0  0  0  0  0  0  0  0  0  0  0  0
    4.0731    1.4381    5.2244 H   0  0  0  0  0  0  0  0  0  0  0  0
    5.7568    1.4908    4.6818 H   0  0  0  0  0  0  0  0  0  0  0  0
  1  2  1  0
  2  3  1  0
  3  4  1  0
  3  5  1  0
  5  6  1  0
  6  7  1  0
  7  8  1  0
  8  9  1  0
  9 10  2  0
  9 11  1  0
 11 12  1  0
 12 13  2  0
 13 14  1  0
 14 15  2  0
 15 16  1  0
 12 17  1  0
 17 18  1  0
 18 19  1  0
 19 20  1  0
 20 21  2  0
 20 22  1  0
 22 23  2  0
 23 24  1  0
 24 25  2  0
 24 26  1  0
 26 27  1  0
 27 28  2  0
 27 29  1  0
 29 30  1  0
 30 31  1  0
 31 32  1  0
 29 33  1  0
 33 34  1  0
 34 35  1  0
  7  1  1  0
 21 11  1  0
 17 16  2  0
 25 21  1  0
  1 36  1  0
  1 37  1  0
  2 38  1  0
  2 39  1  0
  4 40  1  0
  4 41  1  0
  4 42  1  0
  5 43  1  0
  5 44  1  0
  6 45  1  0
  6 46  1  0
  8 47  1  0
  8 48  1  0
 13 49  1  0
 14 50  1  0
 15 51  1  0
 16 52  1  0
 18 53  1  0
 18 54  1  0
 19 55  1  0
 19 56  1  0
 22 57  1  0
 23 58  1  0
 25 59  1  0
 26 60  1  0
 29 61  1  0
 30 62  1  0
 30 63  1  0
 31 64  1  0
 31 65  1  0
 32 66  1  0
 32 67  1  0
 32 68  1  0
 33 69  1  0
 33 70  1  0
 34 71  1  0
 34 72  1  0
 35 73  1  0
 35 74  1  0
 35 75  1  0
M  END
>  <mol_id>  (11) 
OSSL_457771

>  <drugclip_rank>  (11) 
11

>  <conformer>  (11) 
20

>  <align_rmsd>  (11) 
0.597

$$$$
Z30763274
     RDKit          3D

 80 83  0  0  0  0  0  0  0  0999 V2000
   -8.0174    1.1018   -1.8453 C   0  0  0  0  0  0  0  0  0  0  0  0
   -7.7299    1.5022   -0.4049 C   0  0  0  0  0  0  0  0  0  0  0  0
   -6.4202    0.9223    0.1373 C   0  0  0  0  0  0  0  0  0  0  0  0
   -5.1742    1.5694   -0.4751 C   0  0  0  0  0  0  0  0  0  0  0  0
   -3.8551    0.8778   -0.0705 C   0  0  0  0  0  0  0  0  0  0  0  0
   -3.6363    0.8414    1.4514 C   0  0  0  0  0  0  0  0  0  0  0  0
   -2.2997    0.1955    1.8099 C   0  0  0  0  0  0  0  0  0  0  0  0
   -1.1275    0.9169    1.1372 C   0  0  0  0  0  0  0  0  0  0  0  0
   -1.3275    0.9695   -0.3823 C   0  0  0  0  0  0  0  0  0  0  0  0
   -2.6732    1.5836   -0.7582 C   0  0  0  0  0  0  0  0  0  0  0  0
    0.2069    0.2428    1.4611 C   0  0  0  0  0  0  0  0  0  0  0  0
    0.2754   -0.8924    1.9214 O   0  0  0  0  0  0  0  0  0  0  0  0
    1.2814    1.0609    1.1810 N   0  0  0  0  0  0  0  0  0  0  0  0
    2.6531    0.7690    1.3064 C   0  0  0  0  0  0  0  0  0  0  0  0
    3.1581   -0.5216    1.4557 C   0  0  0  0  0  0  0  0  0  0  0  0
    4.5374   -0.7017    1.5823 C   0  0  0  0  0  0  0  0  0  0  0  0
    5.2167   -2.3386    1.7062 S   0  0  0  0  0  0  0  0  0  0  0  0
    4.2031   -3.3044    1.3380 O   0  0  0  0  0  0  0  0  0  0  0  0
    6.5031   -2.3180    1.0393 O   0  0  0  0  0  0  0  0  0  0  0  0
    5.5007   -2.4983    3.3809 N   0  0  0  0  0  0  0  0  0  0  0  0
    4.2787   -2.5813    4.2500 C   0  0  0  0  0  0  0  0  0  0  0  0
    4.0824   -4.0019    4.7923 C   0  0  0  0  0  0  0  0  0  0  0  0
    5.1796   -4.4483    5.6047 O   0  0  0  0  0  0  0  0  0  0  0  0
    6.4441   -3.9033    5.1984 C   0  0  0  0  0  0  0  0  0  0  0  0
    6.4966   -3.5726    3.7054 C   0  0  0  0  0  0  0  0  0  0  0  0
    5.4120    0.3898    1.5487 C   0  0  0  0  0  0  0  0  0  0  0  0
    4.9044    1.6781    1.3827 C   0  0  0  0  0  0  0  0  0  0  0  0
    3.5243    1.8869    1.2416 C   0  0  0  0  0  0  0  0  0  0  0  0
    2.9525    3.1778    1.1016 N   0  0  0  0  0  0  0  0  0  0  0  0
    3.5297    3.9908    0.0040 C   0  0  0  0  0  0  0  0  0  0  0  0
    3.4271    5.5013    0.3054 C   0  0  0  0  0  0  0  0  0  0  0  0
    4.1964    5.8749    1.5078 N   0  0  0  0  0  0  0  0  0  0  0  0
    3.9745    7.2788    1.8683 C   0  0  0  0  0  0  0  0  0  0  0  0
    5.0578    7.8013    2.8075 C   0  0  0  0  0  0  0  0  0  0  0  0
    3.9544    4.9335    2.6250 C   0  0  0  0  0  0  0  0  0  0  0  0
    2.8422    3.8822    2.4023 C   0  0  0  0  0  0  0  0  0  0  0  0
   -8.0133    0.0119   -1.9551 H   0  0  0  0  0  0  0  0  0  0  0  0
   -9.0034    1.4711   -2.1449 H   0  0  0  0  0  0  0  0  0  0  0  0
   -7.2822    1.5242   -2.5371 H   0  0  0  0  0  0  0  0  0  0  0  0
   -8.5524    1.1405    0.2235 H   0  0  0  0  0  0  0  0  0  0  0  0
   -7.7218    2.5954   -0.3200 H   0  0  0  0  0  0  0  0  0  0  0  0
   -6.4008   -0.1639   -0.0205 H   0  0  0  0  0  0  0  0  0  0  0  0
   -6.4137    1.0889    1.2212 H   0  0  0  0  0  0  0  0  0  0  0  0
   -5.1442    2.6280   -0.1867 H   0  0  0  0  0  0  0  0  0  0  0  0
   -5.2465    1.5446   -1.5682 H   0  0  0  0  0  0  0  0  0  0  0  0
   -3.8930   -0.1584   -0.4348 H   0  0  0  0  0  0  0  0  0  0  0  0
   -3.6710    1.8607    1.8565 H   0  0  0  0  0  0  0  0  0  0  0  0
   -4.4346    0.2726    1.9413 H   0  0  0  0  0  0  0  0  0  0  0  0
   -2.1685    0.2069    2.8987 H   0  0  0  0  0  0  0  0  0  0  0  0
   -2.3197   -0.8616    1.5113 H   0  0  0  0  0  0  0  0  0  0  0  0
   -1.0870    1.9413    1.5337 H   0  0  0  0  0  0  0  0  0  0  0  0
   -1.2601   -0.0441   -0.7996 H   0  0  0  0  0  0  0  0  0  0  0  0
   -0.5260    1.5499   -0.8551 H   0  0  0  0  0  0  0  0  0  0  0  0
   -2.6681    2.6461   -0.4840 H   0  0  0  0  0  0  0  0  0  0  0  0
   -2.7936    1.5372   -1.8481 H   0  0  0  0  0  0  0  0  0  0  0  0
    1.1167    2.0430    0.9661 H   0  0  0  0  0  0  0  0  0  0  0  0
    2.5005   -1.3867    1.4452 H   0  0  0  0  0  0  0  0  0  0  0  0
    4.4265   -1.8778    5.0775 H   0  0  0  0  0  0  0  0  0  0  0  0
    3.3798   -2.2662    3.7167 H   0  0  0  0  0  0  0  0  0  0  0  0
    3.1825   -4.0481    5.4120 H   0  0  0  0  0  0  0  0  0  0  0  0
    3.9544   -4.7189    3.9711 H   0  0  0  0  0  0  0  0  0  0  0  0
    7.2169   -4.6347    5.4558 H   0  0  0  0  0  0  0  0  0  0  0  0
    6.6306   -3.0075    5.8047 H   0  0  0  0  0  0  0  0  0  0  0  0
    6.2699   -4.4745    3.1258 H   0  0  0  0  0  0  0  0  0  0  0  0
    7.4959   -3.2163    3.4379 H   0  0  0  0  0  0  0  0  0  0  0  0
    6.4870    0.2396    1.6432 H   0  0  0  0  0  0  0  0  0  0  0  0
    5.5994    2.5133    1.3739 H   0  0  0  0  0  0  0  0  0  0  0  0
    4.5797    3.7495   -0.1971 H   0  0  0  0  0  0  0  0  0  0  0  0
    2.9695    3.7727   -0.9117 H   0  0  0  0  0  0  0  0  0  0  0  0
    3.8178    6.0527   -0.5573 H   0  0  0  0  0  0  0  0  0  0  0  0
    2.3721    5.7808    0.4226 H   0  0  0  0  0  0  0  0  0  0  0  0
    4.0046    7.9038    0.9665 H   0  0  0  0  0  0  0  0  0  0  0  0
    2.9835    7.4189    2.3198 H   0  0  0  0  0  0  0  0  0  0  0  0
    6.0536    7.6755    2.3648 H   0  0  0  0  0  0  0  0  0  0  0  0
    4.9063    8.8699    2.9948 H   0  0  0  0  0  0  0  0  0  0  0  0
    5.0483    7.2907    3.7755 H   0  0  0  0  0  0  0  0  0  0  0  0
    3.7213    5.4620    3.5578 H   0  0  0  0  0  0  0  0  0  0  0  0
    4.9009    4.4102    2.8080 H   0  0  0  0  0  0  0  0  0  0  0  0
    1.8697    4.3928    2.4151 H   0  0  0  0  0  0  0  0  0  0  0  0
    2.8232    3.1798    3.2468 H   0  0  0  0  0  0  0  0  0  0  0  0
  1  2  1  0
  2  3  1  0
  3  4  1  0
  4  5  1  0
  5  6  1  0
  6  7  1  0
  7  8  1  0
  8  9  1  0
  9 10  1  0
  8 11  1  0
 11 12  2  0
 11 13  1  0
 13 14  1  0
 14 15  2  0
 15 16  1  0
 16 17  1  0
 17 18  2  0
 17 19  2  0
 17 20  1  0
 20 21  1  0
 21 22  1  0
 22 23  1  0
 23 24  1  0
 24 25  1  0
 16 26  2  0
 26 27  1  0
 27 28  2  0
 28 29  1  0
 29 30  1  0
 30 31  1  0
 31 32  1  0
 32 33  1  0
 33 34  1  0
 32 35  1  0
 35 36  1  0
 10  5  1  0
 28 14  1  0
 25 20  1  0
 36 29  1  0
  1 37  1  0
  1 38  1  0
  1 39  1  0
  2 40  1  0
  2 41  1  0
  3 42  1  0
  3 43  1  0
  4 44  1  0
  4 45  1  0
  5 46  1  0
  6 47  1  0
  6 48  1  0
  7 49  1  0
  7 50  1  0
  8 51  1  0
  9 52  1  0
  9 53  1  0
 10 54  1  0
 10 55  1  0
 13 56  1  0
 15 57  1  0
 21 58  1  0
 21 59  1  0
 22 60  1  0
 22 61  1  0
 24 62  1  0
 24 63  1  0
 25 64  1  0
 25 65  1  0
 26 66  1  0
 27 67  1  0
 30 68  1  0
 30 69  1  0
 31 70  1  0
 31 71  1  0
 33 72  1  0
 33 73  1  0
 34 74  1  0
 34 75  1  0
 34 76  1  0
 35 77  1  0
 35 78  1  0
 36 79  1  0
 36 80  1  0
M  END
>  <mol_id>  (12) 
Z30763274

>  <drugclip_rank>  (12) 
12

>  <conformer>  (12) 
16

>  <align_rmsd>  (12) 
0.286

$$$$
V014-8990
     RDKit          3D

 71 73  0  0  0  0  0  0  0  0999 V2000
   -8.7809    2.8737   -0.8221 C   0  0  0  0  0  0  0  0  0  0  0  0
   -7.4172    3.5465   -0.9278 C   0  0  0  0  0  0  0  0  0  0  0  0
   -6.3911    2.9477   -1.9153 C   0  0  0  0  0  0  0  0  0  0  0  0
   -6.5249    3.4554   -3.3747 C   0  0  0  0  0  0  0  0  0  0  0  0
   -7.9061    3.4598   -4.0096 C   0  0  0  0  0  0  0  0  0  0  0  0
   -6.2622    1.4420   -1.8354 C   0  0  0  0  0  0  0  0  0  0  0  0
   -7.1259    0.4821   -2.3355 C   0  0  0  0  0  0  0  0  0  0  0  0
   -6.4730   -0.7607   -2.2121 C   0  0  0  0  0  0  0  0  0  0  0  0
   -7.0000   -2.0636   -2.6410 C   0  0  0  0  0  0  0  0  0  0  0  0
   -8.1007   -2.1937   -3.1695 O   0  0  0  0  0  0  0  0  0  0  0  0
   -6.1484   -3.1024   -2.3848 O   0  0  0  0  0  0  0  0  0  0  0  0
   -6.6542   -4.3865   -2.7621 C   0  0  0  0  0  0  0  0  0  0  0  0
   -5.6330   -5.4348   -2.3666 C   0  0  0  0  0  0  0  0  0  0  0  0
   -5.2627   -0.5942   -1.6639 N   0  0  0  0  0  0  0  0  0  0  0  0
   -5.1776    0.7219   -1.3224 N   0  0  0  0  0  0  0  0  0  0  0  0
   -4.0518    1.1253   -0.5356 C   0  0  0  0  0  0  0  0  0  0  0  0
   -4.0481    2.2783    0.2481 C   0  0  0  0  0  0  0  0  0  0  0  0
   -2.9185    2.6171    1.0065 C   0  0  0  0  0  0  0  0  0  0  0  0
   -1.7732    1.8074    1.0098 C   0  0  0  0  0  0  0  0  0  0  0  0
   -1.7850    0.6353    0.2494 C   0  0  0  0  0  0  0  0  0  0  0  0
   -2.9153    0.2960   -0.5076 C   0  0  0  0  0  0  0  0  0  0  0  0
   -0.6132    2.2494    1.8477 C   0  0  0  0  0  0  0  0  0  0  0  0
   -0.7127    3.2599    2.5384 O   0  0  0  0  0  0  0  0  0  0  0  0
    0.5382    1.4933    1.8022 N   0  0  0  0  0  0  0  0  0  0  0  0
    1.7031    1.7976    2.6177 C   0  0  0  0  0  0  0  0  0  0  0  0
    2.9846    1.8812    1.7825 C   0  0  0  0  0  0  0  0  0  0  0  0
    3.3261    0.5797    1.0914 C   0  0  0  0  0  0  0  0  0  0  0  0
    3.8345   -0.5041    1.8235 C   0  0  0  0  0  0  0  0  0  0  0  0
    3.1128    0.4313   -0.2823 C   0  0  0  0  0  0  0  0  0  0  0  0
    3.3998   -0.7790   -0.9180 C   0  0  0  0  0  0  0  0  0  0  0  0
    3.9069   -1.8596   -0.1897 C   0  0  0  0  0  0  0  0  0  0  0  0
    4.2115   -3.0844   -0.7300 O   0  0  0  0  0  0  0  0  0  0  0  0
    4.1269   -3.2211   -2.1411 C   0  0  0  0  0  0  0  0  0  0  0  0
    4.1257   -1.7216    1.1953 C   0  0  0  0  0  0  0  0  0  0  0  0
    4.6180   -2.8292    1.8407 O   0  0  0  0  0  0  0  0  0  0  0  0
    4.9294   -2.7063    3.2206 C   0  0  0  0  0  0  0  0  0  0  0  0
   -8.6982    1.8741   -0.3861 H   0  0  0  0  0  0  0  0  0  0  0  0
   -9.2880    2.7911   -1.7845 H   0  0  0  0  0  0  0  0  0  0  0  0
   -9.4280    3.4574   -0.1584 H   0  0  0  0  0  0  0  0  0  0  0  0
   -6.9880    3.5306    0.0811 H   0  0  0  0  0  0  0  0  0  0  0  0
   -7.5622    4.6071   -1.1685 H   0  0  0  0  0  0  0  0  0  0  0  0
   -5.4226    3.3743   -1.6305 H   0  0  0  0  0  0  0  0  0  0  0  0
   -6.1646    4.4930   -3.3989 H   0  0  0  0  0  0  0  0  0  0  0  0
   -5.8427    2.8890   -4.0220 H   0  0  0  0  0  0  0  0  0  0  0  0
   -8.3483    2.4632   -4.0489 H   0  0  0  0  0  0  0  0  0  0  0  0
   -7.8329    3.8227   -5.0410 H   0  0  0  0  0  0  0  0  0  0  0  0
   -8.5877    4.1340   -3.4828 H   0  0  0  0  0  0  0  0  0  0  0  0
   -8.0946    0.6442   -2.7879 H   0  0  0  0  0  0  0  0  0  0  0  0
   -6.8150   -4.4164   -3.8455 H   0  0  0  0  0  0  0  0  0  0  0  0
   -7.6000   -4.5801   -2.2430 H   0  0  0  0  0  0  0  0  0  0  0  0
   -5.9861   -6.4388   -2.6210 H   0  0  0  0  0  0  0  0  0  0  0  0
   -4.6796   -5.2562   -2.8750 H   0  0  0  0  0  0  0  0  0  0  0  0
   -5.4341   -5.3925   -1.2909 H   0  0  0  0  0  0  0  0  0  0  0  0
   -4.9149    2.9171    0.3481 H   0  0  0  0  0  0  0  0  0  0  0  0
   -2.9457    3.5210    1.6145 H   0  0  0  0  0  0  0  0  0  0  0  0
   -0.9451   -0.0486    0.2217 H   0  0  0  0  0  0  0  0  0  0  0  0
   -2.8860   -0.6269   -1.0866 H   0  0  0  0  0  0  0  0  0  0  0  0
    0.5678    0.6226    1.2940 H   0  0  0  0  0  0  0  0  0  0  0  0
    1.7760    1.0042    3.3696 H   0  0  0  0  0  0  0  0  0  0  0  0
    1.5565    2.7428    3.1502 H   0  0  0  0  0  0  0  0  0  0  0  0
    3.8242    2.1651    2.4289 H   0  0  0  0  0  0  0  0  0  0  0  0
    2.8879    2.6814    1.0376 H   0  0  0  0  0  0  0  0  0  0  0  0
    3.9931   -0.3747    2.8892 H   0  0  0  0  0  0  0  0  0  0  0  0
    2.7175    1.2575   -0.8707 H   0  0  0  0  0  0  0  0  0  0  0  0
    3.2132   -0.8469   -1.9845 H   0  0  0  0  0  0  0  0  0  0  0  0
    3.0900   -3.1304   -2.4830 H   0  0  0  0  0  0  0  0  0  0  0  0
    4.4765   -4.2259   -2.4004 H   0  0  0  0  0  0  0  0  0  0  0  0
    4.7773   -2.5019   -2.6510 H   0  0  0  0  0  0  0  0  0  0  0  0
    5.3447   -3.6614    3.5564 H   0  0  0  0  0  0  0  0  0  0  0  0
    4.0291   -2.5098    3.8116 H   0  0  0  0  0  0  0  0  0  0  0  0
    5.6901   -1.9368    3.3888 H   0  0  0  0  0  0  0  0  0  0  0  0
  1  2  1  0
  2  3  1  0
  3  4  1  0
  4  5  1  0
  3  6  1  0
  6  7  2  0
  7  8  1  0
  8  9  1  0
  9 10  2  0
  9 11  1  0
 11 12  1  0
 12 13  1  0
  8 14  2  0
 14 15  1  0
 15 16  1  0
 16 17  2  0
 17 18  1  0
 18 19  2  0
 19 20  1  0
 20 21  2  0
 19 22  1  0
 22 23  2  0
 22 24  1  0
 24 25  1  0
 25 26  1  0
 26 27  1  0
 27 28  2  0
 27 29  1  0
 29 30  2  0
 30 31  1  0
 31 32  1  0
 32 33  1  0
 31 34  2  0
 34 35  1  0
 35 36  1  0
 15  6  1  0
 21 16  1  0
 34 28  1  0
  1 37  1  0
  1 38  1  0
  1 39  1  0
  2 40  1  0
  2 41  1  0
  3 42  1  0
  4 43  1  0
  4 44  1  0
  5 45  1  0
  5 46  1  0
  5 47  1  0
  7 48  1  0
 12 49  1  0
 12 50  1  0
 13 51  1  0
 13 52  1  0
 13 53  1  0
 17 54  1  0
 18 55  1  0
 20 56  1  0
 21 57  1  0
 24 58  1  0
 25 59  1  0
 25 60  1  0
 26 61  1  0
 26 62  1  0
 28 63  1  0
 29 64  1  0
 30 65  1  0
 33 66  1  0
 33 67  1  0
 33 68  1  0
 36 69  1  0
 36 70  1  0
 36 71  1  0
M  END
>  <mol_id>  (13) 
V014-8990

>  <drugclip_rank>  (13) 
13

>  <conformer>  (13) 
38

>  <align_rmsd>  (13) 
1.269

$$$$
4109-2018
     RDKit          3D

 69 72  0  0  0  0  0  0  0  0999 V2000
   -4.6801   -3.9676  -10.7308 C   0  0  0  0  0  0  0  0  0  0  0  0
   -5.4983   -4.8985   -9.8134 C   0  0  0  0  0  0  0  0  0  0  0  0
   -4.6163   -6.0877   -9.4191 C   0  0  0  0  0  0  0  0  0  0  0  0
   -6.7443   -5.3566  -10.5803 C   0  0  0  0  0  0  0  0  0  0  0  0
   -5.9090   -4.0730   -8.6349 N   0  0  0  0  0  0  0  0  0  0  0  0
   -6.4114   -4.8313   -7.2024 S   0  0  0  0  0  0  0  0  0  0  0  0
   -5.2161   -4.9658   -6.3958 O   0  0  0  0  0  0  0  0  0  0  0  0
   -7.2432   -5.9720   -7.5057 O   0  0  0  0  0  0  0  0  0  0  0  0
   -7.4245   -3.5456   -6.4798 C   0  0  0  0  0  0  0  0  0  0  0  0
   -6.7978   -2.6818   -5.5624 C   0  0  0  0  0  0  0  0  0  0  0  0
   -7.5084   -1.6476   -4.9342 C   0  0  0  0  0  0  0  0  0  0  0  0
   -8.8698   -1.5040   -5.2400 C   0  0  0  0  0  0  0  0  0  0  0  0
   -9.5009   -2.3670   -6.1417 C   0  0  0  0  0  0  0  0  0  0  0  0
   -8.7900   -3.3933   -6.7851 C   0  0  0  0  0  0  0  0  0  0  0  0
   -9.5246   -4.2586   -7.7685 C   0  0  0  0  0  0  0  0  0  0  0  0
   -6.8229   -0.7081   -4.0333 C   0  0  0  0  0  0  0  0  0  0  0  0
   -5.8747    0.0288   -4.6558 N   0  0  0  0  0  0  0  0  0  0  0  0
   -5.1912    0.9870   -3.9706 N   0  0  0  0  0  0  0  0  0  0  0  0
   -5.4344    1.2035   -2.6604 C   0  0  0  0  0  0  0  0  0  0  0  0
   -6.4173    0.4684   -1.9621 C   0  0  0  0  0  0  0  0  0  0  0  0
   -7.1214   -0.5361   -2.6679 C   0  0  0  0  0  0  0  0  0  0  0  0
   -6.7547    0.6960   -0.6040 C   0  0  0  0  0  0  0  0  0  0  0  0
   -7.7154   -0.0696    0.0567 C   0  0  0  0  0  0  0  0  0  0  0  0
   -8.3724   -1.0814   -0.6236 C   0  0  0  0  0  0  0  0  0  0  0  0
   -8.0838   -1.3094   -1.9687 C   0  0  0  0  0  0  0  0  0  0  0  0
   -4.6646    2.2336   -2.0711 N   0  0  0  0  0  0  0  0  0  0  0  0
   -3.7769    2.1002   -0.9726 C   0  0  0  0  0  0  0  0  0  0  0  0
   -3.3246    3.2667   -0.3463 C   0  0  0  0  0  0  0  0  0  0  0  0
   -2.4020    3.2023    0.7012 C   0  0  0  0  0  0  0  0  0  0  0  0
   -1.9023    1.9737    1.1330 C   0  0  0  0  0  0  0  0  0  0  0  0
   -2.3258    0.8073    0.4967 C   0  0  0  0  0  0  0  0  0  0  0  0
   -3.2495    0.8732   -0.5559 C   0  0  0  0  0  0  0  0  0  0  0  0
   -0.9941    2.0595    2.1508 O   0  0  0  0  0  0  0  0  0  0  0  0
   -0.5647    0.8507    2.7662 C   0  0  0  0  0  0  0  0  0  0  0  0
    0.5326    0.1045    2.0022 C   0  0  0  0  0  0  0  0  0  0  0  0
    0.6922   -1.1083    2.1070 O   0  0  0  0  0  0  0  0  0  0  0  0
    1.3353    0.9166    1.2283 N   0  0  0  0  0  0  0  0  0  0  0  0
    2.3280    0.3535    0.3524 C   0  0  0  0  0  0  0  0  0  0  0  0
   -3.7661   -3.6243  -10.2303 H   0  0  0  0  0  0  0  0  0  0  0  0
   -4.3822   -4.4787  -11.6530 H   0  0  0  0  0  0  0  0  0  0  0  0
   -5.2536   -3.0746  -11.0095 H   0  0  0  0  0  0  0  0  0  0  0  0
   -4.2335   -6.6002  -10.3085 H   0  0  0  0  0  0  0  0  0  0  0  0
   -5.1640   -6.8356   -8.8357 H   0  0  0  0  0  0  0  0  0  0  0  0
   -3.7548   -5.7661   -8.8233 H   0  0  0  0  0  0  0  0  0  0  0  0
   -6.4675   -5.8427  -11.5211 H   0  0  0  0  0  0  0  0  0  0  0  0
   -7.3388   -6.0774  -10.0112 H   0  0  0  0  0  0  0  0  0  0  0  0
   -7.3948   -4.5069  -10.8195 H   0  0  0  0  0  0  0  0  0  0  0  0
   -5.1513   -3.4378   -8.3659 H   0  0  0  0  0  0  0  0  0  0  0  0
   -5.7359   -2.7998   -5.3393 H   0  0  0  0  0  0  0  0  0  0  0  0
   -9.4500   -0.7003   -4.7889 H   0  0  0  0  0  0  0  0  0  0  0  0
  -10.5597   -2.2173   -6.3523 H   0  0  0  0  0  0  0  0  0  0  0  0
   -9.6344   -5.2753   -7.3861 H   0  0  0  0  0  0  0  0  0  0  0  0
   -9.0075   -4.2663   -8.7309 H   0  0  0  0  0  0  0  0  0  0  0  0
  -10.5333   -3.8739   -7.9605 H   0  0  0  0  0  0  0  0  0  0  0  0
   -6.2629    1.4885   -0.0420 H   0  0  0  0  0  0  0  0  0  0  0  0
   -7.9441    0.1293    1.1010 H   0  0  0  0  0  0  0  0  0  0  0  0
   -9.1153   -1.6889   -0.1140 H   0  0  0  0  0  0  0  0  0  0  0  0
   -8.6212   -2.1127   -2.4701 H   0  0  0  0  0  0  0  0  0  0  0  0
   -4.1136    2.5917   -2.8530 H   0  0  0  0  0  0  0  0  0  0  0  0
   -3.7013    4.2364   -0.6637 H   0  0  0  0  0  0  0  0  0  0  0  0
   -2.0732    4.1211    1.1807 H   0  0  0  0  0  0  0  0  0  0  0  0
   -1.9523   -0.1732    0.7756 H   0  0  0  0  0  0  0  0  0  0  0  0
   -3.5405   -0.0530   -1.0448 H   0  0  0  0  0  0  0  0  0  0  0  0
   -0.1383    1.1217    3.7387 H   0  0  0  0  0  0  0  0  0  0  0  0
   -1.4088    0.1812    2.9661 H   0  0  0  0  0  0  0  0  0  0  0  0
    0.9672    1.8400    1.0196 H   0  0  0  0  0  0  0  0  0  0  0  0
    1.8233   -0.1484   -0.4775 H   0  0  0  0  0  0  0  0  0  0  0  0
    2.9569    1.1624   -0.0263 H   0  0  0  0  0  0  0  0  0  0  0  0
    2.9367   -0.3709    0.9004 H   0  0  0  0  0  0  0  0  0  0  0  0
  1  2  1  0
  2  3  1  0
  2  4  1  0
  2  5  1  0
  5  6  1  0
  6  7  2  0
  6  8  2  0
  6  9  1  0
  9 10  2  0
 10 11  1  0
 11 12  2  0
 12 13  1  0
 13 14  2  0
 14 15  1  0
 11 16  1  0
 16 17  2  0
 17 18  1  0
 18 19  2  0
 19 20  1  0
 20 21  2  0
 20 22  1  0
 22 23  2  0
 23 24  1  0
 24 25  2  0
 19 26  1  0
 26 27  1  0
 27 28  2  0
 28 29  1  0
 29 30  2  0
 30 31  1  0
 31 32  2  0
 30 33  1  0
 33 34  1  0
 34 35  1  0
 35 36  2  0
 35 37  1  0
 37 38  1  0
 14  9  1  0
 21 16  1  0
 25 21  1  0
 32 27  1  0
  1 39  1  0
  1 40  1  0
  1 41  1  0
  3 42  1  0
  3 43  1  0
  3 44  1  0
  4 45  1  0
  4 46  1  0
  4 47  1  0
  5 48  1  0
 10 49  1  0
 12 50  1  0
 13 51  1  0
 15 52  1  0
 15 53  1  0
 15 54  1  0
 22 55  1  0
 23 56  1  0
 24 57  1  0
 25 58  1  0
 26 59  1  0
 28 60  1  0
 29 61  1  0
 31 62  1  0
 32 63  1  0
 34 64  1  0
 34 65  1  0
 37 66  1  0
 38 67  1  0
 38 68  1  0
 38 69  1  0
M  END
>  <mol_id>  (14) 
4109-2018

>  <drugclip_rank>  (14) 
14

>  <conformer>  (14) 
10

>  <align_rmsd>  (14) 
0.785

$$$$
STK195231
     RDKit          3D

 74 77  0  0  0  0  0  0  0  0999 V2000
   -3.1085    1.2741   -4.1995 C   0  0  0  0  0  0  0  0  0  0  0  0
   -3.8995    0.6629   -3.0234 C   0  0  0  0  0  0  0  0  0  0  0  0
   -4.1107   -0.8352   -3.3425 C   0  0  0  0  0  0  0  0  0  0  0  0
   -5.3004    1.3124   -2.9601 C   0  0  0  0  0  0  0  0  0  0  0  0
   -3.1480    0.9175   -1.7049 C   0  0  0  0  0  0  0  0  0  0  0  0
   -2.6621   -0.1212   -0.8972 C   0  0  0  0  0  0  0  0  0  0  0  0
   -1.9982    0.1359    0.3127 C   0  0  0  0  0  0  0  0  0  0  0  0
   -1.8044    1.4439    0.7492 C   0  0  0  0  0  0  0  0  0  0  0  0
   -2.2599    2.4897   -0.0503 C   0  0  0  0  0  0  0  0  0  0  0  0
   -2.9213    2.2318   -1.2573 C   0  0  0  0  0  0  0  0  0  0  0  0
   -1.1897    1.8295    1.9099 O   0  0  0  0  0  0  0  0  0  0  0  0
   -0.8606    0.8100    2.8444 C   0  0  0  0  0  0  0  0  0  0  0  0
    0.4452    0.0777    2.5230 C   0  0  0  0  0  0  0  0  0  0  0  0
    0.5264   -1.1448    2.6123 O   0  0  0  0  0  0  0  0  0  0  0  0
    1.4631    0.9450    2.1941 N   0  0  0  0  0  0  0  0  0  0  0  0
    2.7761    0.6520    1.7749 C   0  0  0  0  0  0  0  0  0  0  0  0
    3.6179    1.7743    1.5706 C   0  0  0  0  0  0  0  0  0  0  0  0
    4.9256    1.5649    1.1154 C   0  0  0  0  0  0  0  0  0  0  0  0
    5.3953    0.2709    0.8805 C   0  0  0  0  0  0  0  0  0  0  0  0
    4.5618   -0.8372    1.0917 C   0  0  0  0  0  0  0  0  0  0  0  0
    3.2492   -0.6417    1.5428 C   0  0  0  0  0  0  0  0  0  0  0  0
    5.1186   -2.1891    0.8124 C   0  0  0  0  0  0  0  0  0  0  0  0
    6.2514   -2.3750    0.3944 O   0  0  0  0  0  0  0  0  0  0  0  0
    4.2085   -3.1549    1.0849 O   0  0  0  0  0  0  0  0  0  0  0  0
    4.6700   -4.4822    0.8317 C   0  0  0  0  0  0  0  0  0  0  0  0
    3.0992    3.0693    1.8289 N   0  0  0  0  0  0  0  0  0  0  0  0
    2.8537    3.8608    0.5958 C   0  0  0  0  0  0  0  0  0  0  0  0
    3.8794    4.9834    0.3725 C   0  0  0  0  0  0  0  0  0  0  0  0
    3.8227    3.7754    2.9148 C   0  0  0  0  0  0  0  0  0  0  0  0
    3.6220    5.2968    2.8346 C   0  0  0  0  0  0  0  0  0  0  0  0
    4.1007    5.8301    1.5505 N   0  0  0  0  0  0  0  0  0  0  0  0
    4.7502    7.0442    1.3662 C   0  0  0  0  0  0  0  0  0  0  0  0
    5.1150    7.4662    0.2715 O   0  0  0  0  0  0  0  0  0  0  0  0
    5.0425    7.8672    2.5523 C   0  0  0  0  0  0  0  0  0  0  0  0
    6.1925    7.5950    3.3017 C   0  0  0  0  0  0  0  0  0  0  0  0
    6.4737    8.3677    4.4283 C   0  0  0  0  0  0  0  0  0  0  0  0
    5.6164    9.4108    4.7895 C   0  0  0  0  0  0  0  0  0  0  0  0
    4.4805    9.6901    4.0235 C   0  0  0  0  0  0  0  0  0  0  0  0
    4.1897    8.9188    2.8966 C   0  0  0  0  0  0  0  0  0  0  0  0
   -2.0935    0.8599   -4.2515 H   0  0  0  0  0  0  0  0  0  0  0  0
   -3.6027    1.0696   -5.1580 H   0  0  0  0  0  0  0  0  0  0  0  0
   -3.0153    2.3630   -4.1117 H   0  0  0  0  0  0  0  0  0  0  0  0
   -3.1554   -1.3607   -3.4576 H   0  0  0  0  0  0  0  0  0  0  0  0
   -4.6650   -0.9672   -4.2801 H   0  0  0  0  0  0  0  0  0  0  0  0
   -4.6848   -1.3379   -2.5549 H   0  0  0  0  0  0  0  0  0  0  0  0
   -5.8767    0.9207   -2.1131 H   0  0  0  0  0  0  0  0  0  0  0  0
   -5.8723    1.1125   -3.8751 H   0  0  0  0  0  0  0  0  0  0  0  0
   -5.2484    2.4007   -2.8461 H   0  0  0  0  0  0  0  0  0  0  0  0
   -2.7847   -1.1627   -1.1818 H   0  0  0  0  0  0  0  0  0  0  0  0
   -1.6475   -0.7229    0.8788 H   0  0  0  0  0  0  0  0  0  0  0  0
   -2.1156    3.5196    0.2686 H   0  0  0  0  0  0  0  0  0  0  0  0
   -3.2639    3.0824   -1.8418 H   0  0  0  0  0  0  0  0  0  0  0  0
   -1.6820    0.0967    2.9767 H   0  0  0  0  0  0  0  0  0  0  0  0
   -0.7196    1.2989    3.8158 H   0  0  0  0  0  0  0  0  0  0  0  0
    1.2707    1.9455    2.2247 H   0  0  0  0  0  0  0  0  0  0  0  0
    5.5926    2.4029    0.9388 H   0  0  0  0  0  0  0  0  0  0  0  0
    6.4151    0.1299    0.5267 H   0  0  0  0  0  0  0  0  0  0  0  0
    2.5998   -1.5004    1.6909 H   0  0  0  0  0  0  0  0  0  0  0  0
    4.9216   -4.6042   -0.2263 H   0  0  0  0  0  0  0  0  0  0  0  0
    3.8578   -5.1758    1.0735 H   0  0  0  0  0  0  0  0  0  0  0  0
    5.5295   -4.7145    1.4667 H   0  0  0  0  0  0  0  0  0  0  0  0
    1.8622    4.3186    0.7076 H   0  0  0  0  0  0  0  0  0  0  0  0
    2.7935    3.2240   -0.2958 H   0  0  0  0  0  0  0  0  0  0  0  0
    4.8530    4.5572    0.1006 H   0  0  0  0  0  0  0  0  0  0  0  0
    3.5574    5.6129   -0.4661 H   0  0  0  0  0  0  0  0  0  0  0  0
    3.4466    3.4120    3.8779 H   0  0  0  0  0  0  0  0  0  0  0  0
    4.9012    3.5747    2.8831 H   0  0  0  0  0  0  0  0  0  0  0  0
    4.1240    5.7743    3.6773 H   0  0  0  0  0  0  0  0  0  0  0  0
    2.5556    5.5407    2.9027 H   0  0  0  0  0  0  0  0  0  0  0  0
    6.8653    6.7927    3.0063 H   0  0  0  0  0  0  0  0  0  0  0  0
    7.3646    8.1626    5.0187 H   0  0  0  0  0  0  0  0  0  0  0  0
    5.8431   10.0169    5.6643 H   0  0  0  0  0  0  0  0  0  0  0  0
    3.8280   10.5159    4.2980 H   0  0  0  0  0  0  0  0  0  0  0  0
    3.3165    9.1433    2.2901 H   0  0  0  0  0  0  0  0  0  0  0  0
  1  2  1  0
  2  3  1  0
  2  4  1  0
  2  5  1  0
  5  6  2  0
  6  7  1  0
  7  8  2  0
  8  9  1  0
  9 10  2  0
  8 11  1  0
 11 12  1  0
 12 13  1  0
 13 14  2  0
 13 15  1  0
 15 16  1  0
 16 17  1  0
 17 18  2  0
 18 19  1  0
 19 20  2  0
 20 21  1  0
 20 22  1  0
 22 23  2  0
 22 24  1  0
 24 25  1  0
 17 26  1  0
 26 27  1  0
 27 28  1  0
 26 29  1  0
 29 30  1  0
 30 31  1  0
 31 32  1  0
 32 33  2  0
 32 34  1  0
 34 35  2  0
 35 36  1  0
 36 37  2  0
 37 38  1  0
 38 39  2  0
 10  5  1  0
 21 16  2  0
 31 28  1  0
 39 34  1  0
  1 40  1  0
  1 41  1  0
  1 42  1  0
  3 43  1  0
  3 44  1  0
  3 45  1  0
  4 46  1  0
  4 47  1  0
  4 48  1  0
  6 49  1  0
  7 50  1  0
  9 51  1  0
 10 52  1  0
 12 53  1  0
 12 54  1  0
 15 55  1  0
 18 56  1  0
 19 57  1  0
 21 58  1  0
 25 59  1  0
 25 60  1  0
 25 61  1  0
 27 62  1  0
 27 63  1  0
 28 64  1  0
 28 65  1  0
 29 66  1  0
 29 67  1  0
 30 68  1  0
 30 69  1  0
 35 70  1  0
 36 71  1  0
 37 72  1  0
 38 73  1  0
 39 74  1  0
M  END
>  <mol_id>  (15) 
STK195231

>  <drugclip_rank>  (15) 
15

>  <conformer>  (15) 
17

>  <align_rmsd>  (15) 
0.822

$$$$
Z30764334
     RDKit          3D

 75 78  0  0  0  0  0  0  0  0999 V2000
    1.4496    7.9482   -0.2824 C   0  0  0  0  0  0  0  0  0  0  0  0
    2.2898    7.4115    0.8714 C   0  0  0  0  0  0  0  0  0  0  0  0
    2.3106    5.9466    0.9141 N   0  0  0  0  0  0  0  0  0  0  0  0
    2.8996    5.4434    2.1660 C   0  0  0  0  0  0  0  0  0  0  0  0
    2.8270    3.8978    2.2890 C   0  0  0  0  0  0  0  0  0  0  0  0
    3.0779    3.2126    0.9947 N   0  0  0  0  0  0  0  0  0  0  0  0
    3.7895    4.0486    0.0149 C   0  0  0  0  0  0  0  0  0  0  0  0
    2.9796    5.3438   -0.2636 C   0  0  0  0  0  0  0  0  0  0  0  0
    3.5903    1.9066    1.1760 C   0  0  0  0  0  0  0  0  0  0  0  0
    4.9542    1.6501    1.3730 C   0  0  0  0  0  0  0  0  0  0  0  0
    5.4069    0.3461    1.5817 C   0  0  0  0  0  0  0  0  0  0  0  0
    4.4932   -0.7111    1.5916 C   0  0  0  0  0  0  0  0  0  0  0  0
    5.0917   -2.3696    1.8054 S   0  0  0  0  0  0  0  0  0  0  0  0
    4.1005   -3.2920    1.2984 O   0  0  0  0  0  0  0  0  0  0  0  0
    6.4502   -2.4002    1.3027 O   0  0  0  0  0  0  0  0  0  0  0  0
    5.1622   -2.5280    3.4999 N   0  0  0  0  0  0  0  0  0  0  0  0
    3.8599   -2.5193    4.2434 C   0  0  0  0  0  0  0  0  0  0  0  0
    3.1896   -3.8996    4.2531 C   0  0  0  0  0  0  0  0  0  0  0  0
    4.0754   -4.9066    4.7647 O   0  0  0  0  0  0  0  0  0  0  0  0
    5.2622   -4.9846    3.9617 C   0  0  0  0  0  0  0  0  0  0  0  0
    6.0204   -3.6548    3.9883 C   0  0  0  0  0  0  0  0  0  0  0  0
    3.1316   -0.4852    1.3783 C   0  0  0  0  0  0  0  0  0  0  0  0
    2.6782    0.8200    1.1929 C   0  0  0  0  0  0  0  0  0  0  0  0
    1.3262    1.1527    0.9678 N   0  0  0  0  0  0  0  0  0  0  0  0
    0.2193    0.3470    1.1077 C   0  0  0  0  0  0  0  0  0  0  0  0
    0.2083   -0.7854    1.5792 O   0  0  0  0  0  0  0  0  0  0  0  0
   -1.0723    0.9662    0.6891 C   0  0  0  0  0  0  0  0  0  0  0  0
   -1.1398    1.9335   -0.3202 C   0  0  0  0  0  0  0  0  0  0  0  0
   -2.3761    2.4759   -0.6826 C   0  0  0  0  0  0  0  0  0  0  0  0
   -3.5535    2.0588   -0.0557 C   0  0  0  0  0  0  0  0  0  0  0  0
   -3.4886    1.0845    0.9405 C   0  0  0  0  0  0  0  0  0  0  0  0
   -2.2535    0.5368    1.3074 C   0  0  0  0  0  0  0  0  0  0  0  0
   -4.6866    2.6721   -0.5104 O   0  0  0  0  0  0  0  0  0  0  0  0
   -5.9240    2.2959    0.0939 C   0  0  0  0  0  0  0  0  0  0  0  0
   -7.0772    3.0859   -0.5462 C   0  0  0  0  0  0  0  0  0  0  0  0
   -6.8982    4.5923   -0.3484 C   0  0  0  0  0  0  0  0  0  0  0  0
   -7.2109    2.7659   -2.0366 C   0  0  0  0  0  0  0  0  0  0  0  0
    1.4035    9.0409   -0.2339 H   0  0  0  0  0  0  0  0  0  0  0  0
    1.8693    7.6783   -1.2557 H   0  0  0  0  0  0  0  0  0  0  0  0
    0.4244    7.5672   -0.2312 H   0  0  0  0  0  0  0  0  0  0  0  0
    3.3069    7.8186    0.8132 H   0  0  0  0  0  0  0  0  0  0  0  0
    1.8464    7.7954    1.7984 H   0  0  0  0  0  0  0  0  0  0  0  0
    3.9486    5.7611    2.2379 H   0  0  0  0  0  0  0  0  0  0  0  0
    2.3795    5.8718    3.0317 H   0  0  0  0  0  0  0  0  0  0  0  0
    1.8252    3.6160    2.6339 H   0  0  0  0  0  0  0  0  0  0  0  0
    3.5437    3.5847    3.0581 H   0  0  0  0  0  0  0  0  0  0  0  0
    4.7825    4.3257    0.3918 H   0  0  0  0  0  0  0  0  0  0  0  0
    3.9253    3.5071   -0.9298 H   0  0  0  0  0  0  0  0  0  0  0  0
    3.6667    6.0535   -0.7420 H   0  0  0  0  0  0  0  0  0  0  0  0
    2.1972    5.1129   -0.9968 H   0  0  0  0  0  0  0  0  0  0  0  0
    5.6768    2.4610    1.3861 H   0  0  0  0  0  0  0  0  0  0  0  0
    6.4685    0.1608    1.7320 H   0  0  0  0  0  0  0  0  0  0  0  0
    3.1799   -1.7617    3.8493 H   0  0  0  0  0  0  0  0  0  0  0  0
    4.0895   -2.2223    5.2746 H   0  0  0  0  0  0  0  0  0  0  0  0
    2.3131   -3.8733    4.9091 H   0  0  0  0  0  0  0  0  0  0  0  0
    2.8398   -4.2006    3.2608 H   0  0  0  0  0  0  0  0  0  0  0  0
    4.9934   -5.2849    2.9433 H   0  0  0  0  0  0  0  0  0  0  0  0
    5.8907   -5.7744    4.3848 H   0  0  0  0  0  0  0  0  0  0  0  0
    6.3087   -3.4153    5.0196 H   0  0  0  0  0  0  0  0  0  0  0  0
    6.9479   -3.7209    3.4116 H   0  0  0  0  0  0  0  0  0  0  0  0
    2.4471   -1.3269    1.3483 H   0  0  0  0  0  0  0  0  0  0  0  0
    1.2066    2.1443    0.7710 H   0  0  0  0  0  0  0  0  0  0  0  0
   -0.2509    2.2606   -0.8521 H   0  0  0  0  0  0  0  0  0  0  0  0
   -2.4245    3.2262   -1.4683 H   0  0  0  0  0  0  0  0  0  0  0  0
   -4.3766    0.7235    1.4502 H   0  0  0  0  0  0  0  0  0  0  0  0
   -2.2153   -0.2280    2.0817 H   0  0  0  0  0  0  0  0  0  0  0  0
   -5.8945    2.5158    1.1686 H   0  0  0  0  0  0  0  0  0  0  0  0
   -6.1021    1.2229   -0.0524 H   0  0  0  0  0  0  0  0  0  0  0  0
   -8.0072    2.7834   -0.0473 H   0  0  0  0  0  0  0  0  0  0  0  0
   -6.0030    4.9637   -0.8570 H   0  0  0  0  0  0  0  0  0  0  0  0
   -6.8099    4.8353    0.7156 H   0  0  0  0  0  0  0  0  0  0  0  0
   -7.7606    5.1385   -0.7447 H   0  0  0  0  0  0  0  0  0  0  0  0
   -8.0722    3.2871   -2.4669 H   0  0  0  0  0  0  0  0  0  0  0  0
   -7.3591    1.6919   -2.1904 H   0  0  0  0  0  0  0  0  0  0  0  0
   -6.3199    3.0696   -2.5974 H   0  0  0  0  0  0  0  0  0  0  0  0
  1  2  1  0
  2  3  1  0
  3  4  1  0
  4  5  1  0
  5  6  1  0
  6  7  1  0
  7  8  1  0
  6  9  1  0
  9 10  2  0
 10 11  1  0
 11 12  2  0
 12 13  1  0
 13 14  2  0
 13 15  2  0
 13 16  1  0
 16 17  1  0
 17 18  1  0
 18 19  1  0
 19 20  1  0
 20 21  1  0
 12 22  1  0
 22 23  2  0
 23 24  1  0
 24 25  1  0
 25 26  2  0
 25 27  1  0
 27 28  2  0
 28 29  1  0
 29 30  2  0
 30 31  1  0
 31 32  2  0
 30 33  1  0
 33 34  1  0
 34 35  1  0
 35 36  1  0
 35 37  1  0
  8  3  1  0
 23  9  1  0
 21 16  1  0
 32 27  1  0
  1 38  1  0
  1 39  1  0
  1 40  1  0
  2 41  1  0
  2 42  1  0
  4 43  1  0
  4 44  1  0
  5 45  1  0
  5 46  1  0
  7 47  1  0
  7 48  1  0
  8 49  1  0
  8 50  1  0
 10 51  1  0
 11 52  1  0
 17 53  1  0
 17 54  1  0
 18 55  1  0
 18 56  1  0
 20 57  1  0
 20 58  1  0
 21 59  1  0
 21 60  1  0
 22 61  1  0
 24 62  1  0
 28 63  1  0
 29 64  1  0
 31 65  1  0
 32 66  1  0
 34 67  1  0
 34 68  1  0
 35 69  1  0
 36 70  1  0
 36 71  1  0
 36 72  1  0
 37 73  1  0
 37 74  1  0
 37 75  1  0
M  END
>  <mol_id>  (16) 
Z30764334

>  <drugclip_rank>  (16) 
16

>  <conformer>  (16) 
9

>  <align_rmsd>  (16) 
0.478

$$$$
4119-0011
     RDKit          3D

 71 74  0  0  0  0  0  0  0  0999 V2000
   -3.1131    4.1629   -4.9528 C   0  0  0  0  0  0  0  0  0  0  0  0
   -3.2978    5.4643   -5.7525 C   0  0  0  0  0  0  0  0  0  0  0  0
   -4.6270    5.9839   -5.6114 O   0  0  0  0  0  0  0  0  0  0  0  0
   -4.9219    6.2237   -4.2291 C   0  0  0  0  0  0  0  0  0  0  0  0
   -4.7658    4.9444   -3.3868 C   0  0  0  0  0  0  0  0  0  0  0  0
   -3.4093    4.3888   -3.5294 N   0  0  0  0  0  0  0  0  0  0  0  0
   -3.1566    3.2132   -2.6684 C   0  0  0  0  0  0  0  0  0  0  0  0
   -4.1850    2.0606   -2.7869 C   0  0  0  0  0  0  0  0  0  0  0  0
   -4.6667    1.7429   -3.8778 O   0  0  0  0  0  0  0  0  0  0  0  0
   -4.5851    1.5121   -1.5481 N   0  0  0  0  0  0  0  0  0  0  0  0
   -5.8294    0.8083   -1.4618 C   0  0  0  0  0  0  0  0  0  0  0  0
   -6.1900   -0.1656   -2.4030 C   0  0  0  0  0  0  0  0  0  0  0  0
   -7.4214   -0.8242   -2.3141 C   0  0  0  0  0  0  0  0  0  0  0  0
   -8.3088   -0.5054   -1.2892 C   0  0  0  0  0  0  0  0  0  0  0  0
   -7.9706    0.4688   -0.3533 C   0  0  0  0  0  0  0  0  0  0  0  0
   -6.7362    1.1295   -0.4371 C   0  0  0  0  0  0  0  0  0  0  0  0
   -6.3606    2.1751    0.5733 C   0  0  0  0  0  0  0  0  0  0  0  0
   -5.2998    1.6072    1.5008 C   0  0  0  0  0  0  0  0  0  0  0  0
   -3.9754    1.2026    0.8843 C   0  0  0  0  0  0  0  0  0  0  0  0
   -3.6432    1.2207   -0.4852 C   0  0  0  0  0  0  0  0  0  0  0  0
   -2.9956    0.7940    1.8178 C   0  0  0  0  0  0  0  0  0  0  0  0
   -1.7054    0.4373    1.4257 C   0  0  0  0  0  0  0  0  0  0  0  0
   -1.3526    0.4805    0.0862 C   0  0  0  0  0  0  0  0  0  0  0  0
   -2.3221    0.8633   -0.8506 C   0  0  0  0  0  0  0  0  0  0  0  0
   -0.0532    0.1926   -0.3867 N   0  0  0  0  0  0  0  0  0  0  0  0
    0.9613   -0.4477    0.3113 C   0  0  0  0  0  0  0  0  0  0  0  0
    0.8216   -1.0109    1.3917 O   0  0  0  0  0  0  0  0  0  0  0  0
    2.3052   -0.4024   -0.4334 C   0  0  0  0  0  0  0  0  0  0  0  0
    3.2211   -1.5900   -0.0629 C   0  0  0  0  0  0  0  0  0  0  0  0
    4.2220   -1.4284    1.0907 C   0  0  0  0  0  0  0  0  0  0  0  0
    3.6090   -1.2430    2.4659 C   0  0  0  0  0  0  0  0  0  0  0  0
    2.9396    0.9931   -0.2921 C   0  0  0  0  0  0  0  0  0  0  0  0
    4.0881    1.2387   -1.2768 C   0  0  0  0  0  0  0  0  0  0  0  0
    4.8203    2.5370   -0.9519 C   0  0  0  0  0  0  0  0  0  0  0  0
   -2.0782    3.8218   -5.0764 H   0  0  0  0  0  0  0  0  0  0  0  0
   -3.7674    3.4002   -5.3836 H   0  0  0  0  0  0  0  0  0  0  0  0
   -2.5776    6.2296   -5.4385 H   0  0  0  0  0  0  0  0  0  0  0  0
   -3.1324    5.2686   -6.8183 H   0  0  0  0  0  0  0  0  0  0  0  0
   -4.2676    7.0186   -3.8541 H   0  0  0  0  0  0  0  0  0  0  0  0
   -5.9551    6.5832   -4.1671 H   0  0  0  0  0  0  0  0  0  0  0  0
   -5.5187    4.2187   -3.7174 H   0  0  0  0  0  0  0  0  0  0  0  0
   -4.9687    5.1866   -2.3380 H   0  0  0  0  0  0  0  0  0  0  0  0
   -2.1607    2.8226   -2.8953 H   0  0  0  0  0  0  0  0  0  0  0  0
   -3.1297    3.5820   -1.6352 H   0  0  0  0  0  0  0  0  0  0  0  0
   -5.5099   -0.4463   -3.2010 H   0  0  0  0  0  0  0  0  0  0  0  0
   -7.6843   -1.5849   -3.0436 H   0  0  0  0  0  0  0  0  0  0  0  0
   -9.2703   -1.0144   -1.2244 H   0  0  0  0  0  0  0  0  0  0  0  0
   -8.6751    0.7112    0.4395 H   0  0  0  0  0  0  0  0  0  0  0  0
   -6.0062    3.0772    0.0646 H   0  0  0  0  0  0  0  0  0  0  0  0
   -7.2380    2.4814    1.1545 H   0  0  0  0  0  0  0  0  0  0  0  0
   -5.7087    0.7285    2.0190 H   0  0  0  0  0  0  0  0  0  0  0  0
   -5.0954    2.3671    2.2683 H   0  0  0  0  0  0  0  0  0  0  0  0
   -3.2378    0.7585    2.8813 H   0  0  0  0  0  0  0  0  0  0  0  0
   -0.9953    0.1592    2.2008 H   0  0  0  0  0  0  0  0  0  0  0  0
   -2.0523    0.8186   -1.9053 H   0  0  0  0  0  0  0  0  0  0  0  0
    0.1394    0.4359   -1.3516 H   0  0  0  0  0  0  0  0  0  0  0  0
    2.0501   -0.5521   -1.4939 H   0  0  0  0  0  0  0  0  0  0  0  0
    3.8151   -1.8283   -0.9561 H   0  0  0  0  0  0  0  0  0  0  0  0
    2.6068   -2.4850    0.1207 H   0  0  0  0  0  0  0  0  0  0  0  0
    4.8413   -2.3328    1.1213 H   0  0  0  0  0  0  0  0  0  0  0  0
    4.9177   -0.6040    0.8913 H   0  0  0  0  0  0  0  0  0  0  0  0
    2.9068   -2.0498    2.6974 H   0  0  0  0  0  0  0  0  0  0  0  0
    3.0888   -0.2859    2.5494 H   0  0  0  0  0  0  0  0  0  0  0  0
    4.3941   -1.2606    3.2301 H   0  0  0  0  0  0  0  0  0  0  0  0
    2.1785    1.7681   -0.4558 H   0  0  0  0  0  0  0  0  0  0  0  0
    3.2862    1.1461    0.7392 H   0  0  0  0  0  0  0  0  0  0  0  0
    3.6948    1.2933   -2.3019 H   0  0  0  0  0  0  0  0  0  0  0  0
    4.8140    0.4177   -1.2513 H   0  0  0  0  0  0  0  0  0  0  0  0
    5.6294    2.7117   -1.6728 H   0  0  0  0  0  0  0  0  0  0  0  0
    5.2635    2.4928    0.0521 H   0  0  0  0  0  0  0  0  0  0  0  0
    4.1389    3.3947   -0.9940 H   0  0  0  0  0  0  0  0  0  0  0  0
  1  2  1  0
  2  3  1  0
  3  4  1  0
  4  5  1  0
  5  6  1  0
  6  7  1  0
  7  8  1  0
  8  9  2  0
  8 10  1  0
 10 11  1  0
 11 12  2  0
 12 13  1  0
 13 14  2  0
 14 15  1  0
 11 16  1  0
 16 17  1  0
 17 18  1  0
 18 19  1  0
 19 20  2  0
 19 21  1  0
 21 22  2  0
 22 23  1  0
 23 24  2  0
 23 25  1  0
 25 26  1  0
 26 27  2  0
 26 28  1  0
 28 29  1  0
 29 30  1  0
 30 31  1  0
 28 32  1  0
 32 33  1  0
 33 34  1  0
  6  1  1  0
 20 10  1  0
 16 15  2  0
 24 20  1  0
  1 35  1  0
  1 36  1  0
  2 37  1  0
  2 38  1  0
  4 39  1  0
  4 40  1  0
  5 41  1  0
  5 42  1  0
  7 43  1  0
  7 44  1  0
 12 45  1  0
 13 46  1  0
 14 47  1  0
 15 48  1  0
 17 49  1  0
 17 50  1  0
 18 51  1  0
 18 52  1  0
 21 53  1  0
 22 54  1  0
 24 55  1  0
 25 56  1  0
 28 57  1  0
 29 58  1  0
 29 59  1  0
 30 60  1  0
 30 61  1  0
 31 62  1  0
 31 63  1  0
 31 64  1  0
 32 65  1  0
 32 66  1  0
 33 67  1  0
 33 68  1  0
 34 69  1  0
 34 70  1  0
 34 71  1  0
M  END
>  <mol_id>  (17) 
4119-0011

>  <drugclip_rank>  (17) 
17

>  <conformer>  (17) 
29

>  <align_rmsd>  (17) 
0.645

$$$$
Z6943423772
     RDKit          3D

 76 79  0  0  0  0  0  0  0  0999 V2000
   -5.5133   -3.0542   -3.9603 N   0  0  0  0  0  0  0  0  0  0  0  0
   -5.2753   -4.3846   -3.9665 C   0  0  0  0  0  0  0  0  0  0  0  0
   -5.1659   -5.1519   -2.8196 C   0  0  0  0  0  0  0  0  0  0  0  0
   -5.3103   -4.5184   -1.5908 C   0  0  0  0  0  0  0  0  0  0  0  0
   -5.5635   -3.1499   -1.5536 C   0  0  0  0  0  0  0  0  0  0  0  0
   -5.6621   -2.4524   -2.7558 C   0  0  0  0  0  0  0  0  0  0  0  0
   -5.9235   -0.9708   -2.7679 C   0  0  0  0  0  0  0  0  0  0  0  0
   -4.6919   -0.2179   -3.2519 C   0  0  0  0  0  0  0  0  0  0  0  0
   -4.8311    1.2120   -3.0661 N   0  0  0  0  0  0  0  0  0  0  0  0
   -5.5498    1.9379   -3.9449 N   0  0  0  0  0  0  0  0  0  0  0  0
   -4.2852    2.0087   -2.0886 C   0  0  0  0  0  0  0  0  0  0  0  0
   -4.6010    3.2623   -2.3509 N   0  0  0  0  0  0  0  0  0  0  0  0
   -5.3878    3.1768   -3.4684 C   0  0  0  0  0  0  0  0  0  0  0  0
   -6.0022    4.3671   -4.1002 C   0  0  0  0  0  0  0  0  0  0  0  0
   -5.1649    4.8918   -5.2586 C   0  0  0  0  0  0  0  0  0  0  0  0
   -5.8072    6.0488   -5.8044 O   0  0  0  0  0  0  0  0  0  0  0  0
   -5.0603    6.6777   -6.8498 C   0  0  0  0  0  0  0  0  0  0  0  0
   -5.6177    8.0881   -7.0076 C   0  0  0  0  0  0  0  0  0  0  0  0
   -5.1972    5.9066   -8.1585 C   0  0  0  0  0  0  0  0  0  0  0  0
   -3.4826    1.5390   -0.9683 C   0  0  0  0  0  0  0  0  0  0  0  0
   -4.0605    0.8057    0.0653 C   0  0  0  0  0  0  0  0  0  0  0  0
   -3.2704    0.3372    1.1150 C   0  0  0  0  0  0  0  0  0  0  0  0
   -2.1169    1.8337   -0.9082 C   0  0  0  0  0  0  0  0  0  0  0  0
   -1.3033    1.3852    0.1569 C   0  0  0  0  0  0  0  0  0  0  0  0
   -1.8844    0.5909    1.1651 C   0  0  0  0  0  0  0  0  0  0  0  0
    0.1587    1.7843    0.0961 C   0  0  0  0  0  0  0  0  0  0  0  0
    0.9076    1.8415    1.4271 C   0  0  0  0  0  0  0  0  0  0  0  0
    1.3013    0.5137    1.8987 N   0  0  0  0  0  0  0  0  0  0  0  0
    0.2700   -0.5059    2.0457 C   0  0  0  0  0  0  0  0  0  0  0  0
   -1.1303    0.0235    2.3516 C   0  0  0  0  0  0  0  0  0  0  0  0
    2.6223    0.0810    1.9174 C   0  0  0  0  0  0  0  0  0  0  0  0
    2.9441   -1.0817    2.1307 O   0  0  0  0  0  0  0  0  0  0  0  0
    3.5030    1.0857    1.6807 O   0  0  0  0  0  0  0  0  0  0  0  0
    4.9334    0.8438    1.6633 C   0  0  0  0  0  0  0  0  0  0  0  0
    5.3212   -0.0986    0.5190 C   0  0  0  0  0  0  0  0  0  0  0  0
    5.5547    2.2235    1.3965 C   0  0  0  0  0  0  0  0  0  0  0  0
    5.4360    0.3364    3.0199 C   0  0  0  0  0  0  0  0  0  0  0  0
   -5.1723   -4.8315   -4.9521 H   0  0  0  0  0  0  0  0  0  0  0  0
   -4.9729   -6.2167   -2.8828 H   0  0  0  0  0  0  0  0  0  0  0  0
   -5.2302   -5.0869   -0.6684 H   0  0  0  0  0  0  0  0  0  0  0  0
   -5.6799   -2.6458   -0.5993 H   0  0  0  0  0  0  0  0  0  0  0  0
   -6.2224   -0.6317   -1.7691 H   0  0  0  0  0  0  0  0  0  0  0  0
   -6.7780   -0.7659   -3.4248 H   0  0  0  0  0  0  0  0  0  0  0  0
   -3.7887   -0.5441   -2.7238 H   0  0  0  0  0  0  0  0  0  0  0  0
   -4.5127   -0.3922   -4.3205 H   0  0  0  0  0  0  0  0  0  0  0  0
   -6.1324    5.1602   -3.3535 H   0  0  0  0  0  0  0  0  0  0  0  0
   -7.0133    4.1302   -4.4535 H   0  0  0  0  0  0  0  0  0  0  0  0
   -4.1618    5.1622   -4.9074 H   0  0  0  0  0  0  0  0  0  0  0  0
   -5.0681    4.1212   -6.0310 H   0  0  0  0  0  0  0  0  0  0  0  0
   -4.0047    6.7515   -6.5612 H   0  0  0  0  0  0  0  0  0  0  0  0
   -6.6848    8.0646   -7.2574 H   0  0  0  0  0  0  0  0  0  0  0  0
   -5.5285    8.6401   -6.0651 H   0  0  0  0  0  0  0  0  0  0  0  0
   -5.0858    8.6423   -7.7872 H   0  0  0  0  0  0  0  0  0  0  0  0
   -6.2508    5.7314   -8.4025 H   0  0  0  0  0  0  0  0  0  0  0  0
   -4.7201    4.9245   -8.0892 H   0  0  0  0  0  0  0  0  0  0  0  0
   -4.7282    6.4473   -8.9869 H   0  0  0  0  0  0  0  0  0  0  0  0
   -5.1292    0.6071    0.0739 H   0  0  0  0  0  0  0  0  0  0  0  0
   -3.7510   -0.2321    1.9099 H   0  0  0  0  0  0  0  0  0  0  0  0
   -1.6771    2.4344   -1.7054 H   0  0  0  0  0  0  0  0  0  0  0  0
    0.2102    2.7932   -0.3358 H   0  0  0  0  0  0  0  0  0  0  0  0
    0.6736    1.1088   -0.5993 H   0  0  0  0  0  0  0  0  0  0  0  0
    0.3077    2.3223    2.2080 H   0  0  0  0  0  0  0  0  0  0  0  0
    1.7911    2.4732    1.2951 H   0  0  0  0  0  0  0  0  0  0  0  0
    0.2668   -1.1110    1.1300 H   0  0  0  0  0  0  0  0  0  0  0  0
    0.5769   -1.1709    2.8630 H   0  0  0  0  0  0  0  0  0  0  0  0
   -1.7029   -0.8276    2.7443 H   0  0  0  0  0  0  0  0  0  0  0  0
   -1.1040    0.7734    3.1514 H   0  0  0  0  0  0  0  0  0  0  0  0
    4.9584   -1.1174    0.6880 H   0  0  0  0  0  0  0  0  0  0  0  0
    4.8829    0.2377   -0.4281 H   0  0  0  0  0  0  0  0  0  0  0  0
    6.4089   -0.1539    0.3993 H   0  0  0  0  0  0  0  0  0  0  0  0
    5.1858    2.6412    0.4524 H   0  0  0  0  0  0  0  0  0  0  0  0
    5.2714    2.9360    2.1801 H   0  0  0  0  0  0  0  0  0  0  0  0
    6.6479    2.1766    1.3500 H   0  0  0  0  0  0  0  0  0  0  0  0
    5.1004   -0.6844    3.2253 H   0  0  0  0  0  0  0  0  0  0  0  0
    6.5308    0.3319    3.0630 H   0  0  0  0  0  0  0  0  0  0  0  0
    5.0566    0.9634    3.8347 H   0  0  0  0  0  0  0  0  0  0  0  0
  1  2  2  0
  2  3  1  0
  3  4  2  0
  4  5  1  0
  5  6  2  0
  6  7  1  0
  7  8  1  0
  8  9  1  0
  9 10  1  0
  9 11  1  0
 11 12  2  0
 12 13  1  0
 13 14  1  0
 14 15  1  0
 15 16  1  0
 16 17  1  0
 17 18  1  0
 17 19  1  0
 11 20  1  0
 20 21  2  0
 21 22  1  0
 20 23  1  0
 23 24  2  0
 24 25  1  0
 24 26  1  0
 26 27  1  0
 27 28  1  0
 28 29  1  0
 29 30  1  0
 28 31  1  0
 31 32  2  0
 31 33  1  0
 33 34  1  0
 34 35  1  0
 34 36  1  0
 34 37  1  0
  6  1  1  0
 13 10  2  0
 25 22  2  0
 30 25  1  0
  2 38  1  0
  3 39  1  0
  4 40  1  0
  5 41  1  0
  7 42  1  0
  7 43  1  0
  8 44  1  0
  8 45  1  0
 14 46  1  0
 14 47  1  0
 15 48  1  0
 15 49  1  0
 17 50  1  0
 18 51  1  0
 18 52  1  0
 18 53  1  0
 19 54  1  0
 19 55  1  0
 19 56  1  0
 21 57  1  0
 22 58  1  0
 23 59  1  0
 26 60  1  0
 26 61  1  0
 27 62  1  0
 27 63  1  0
 29 64  1  0
 29 65  1  0
 30 66  1  0
 30 67  1  0
 35 68  1  0
 35 69  1  0
 35 70  1  0
 36 71  1  0
 36 72  1  0
 36 73  1  0
 37 74  1  0
 37 75  1  0
 37 76  1  0
M  END
>  <mol_id>  (18) 
Z6943423772

>  <drugclip_rank>  (18) 
18

>  <conformer>  (18) 
32

>  <align_rmsd>  (18) 
0.713

$$$$
G785-0920
     RDKit          3D

 74 77  0  0  0  0  0  0  0  0999 V2000
   -6.5285    0.1824   -2.7607 C   0  0  0  0  0  0  0  0  0  0  0  0
   -7.3358   -0.7269   -2.0715 C   0  0  0  0  0  0  0  0  0  0  0  0
   -6.8464   -1.3747   -0.9419 C   0  0  0  0  0  0  0  0  0  0  0  0
   -5.5492   -1.1168   -0.5073 C   0  0  0  0  0  0  0  0  0  0  0  0
   -4.7380   -0.2102   -1.1993 C   0  0  0  0  0  0  0  0  0  0  0  0
   -5.2143    0.4523   -2.3345 C   0  0  0  0  0  0  0  0  0  0  0  0
   -4.4248    1.3944   -3.0758 N   0  0  0  0  0  0  0  0  0  0  0  0
   -4.9939    2.0083   -4.1491 N   0  0  0  0  0  0  0  0  0  0  0  0
   -4.0693    2.8398   -4.6374 C   0  0  0  0  0  0  0  0  0  0  0  0
   -4.4463    3.6782   -5.8038 C   0  0  0  0  0  0  0  0  0  0  0  0
   -3.1054    1.8450   -2.8910 C   0  0  0  0  0  0  0  0  0  0  0  0
   -2.8634    2.7687   -3.9017 C   0  0  0  0  0  0  0  0  0  0  0  0
   -1.6371    3.4095   -4.0043 N   0  0  0  0  0  0  0  0  0  0  0  0
   -1.2097    4.2628   -4.9995 C   0  0  0  0  0  0  0  0  0  0  0  0
   -1.7975    4.4970   -6.0490 O   0  0  0  0  0  0  0  0  0  0  0  0
    0.1498    4.8951   -4.6747 C   0  0  0  0  0  0  0  0  0  0  0  0
    0.0514    5.7736   -3.4253 C   0  0  0  0  0  0  0  0  0  0  0  0
    0.6679    5.7218   -5.8500 C   0  0  0  0  0  0  0  0  0  0  0  0
   -2.2602    1.4079   -1.8937 N   0  0  0  0  0  0  0  0  0  0  0  0
   -1.2682    0.3863   -2.2669 C   0  0  0  0  0  0  0  0  0  0  0  0
   -0.2025    0.2209   -1.1842 C   0  0  0  0  0  0  0  0  0  0  0  0
   -0.8244    0.2774    0.2141 C   0  0  0  0  0  0  0  0  0  0  0  0
   -1.6009    1.5833    0.4534 C   0  0  0  0  0  0  0  0  0  0  0  0
   -1.8881    2.3507   -0.8377 C   0  0  0  0  0  0  0  0  0  0  0  0
    0.2196    0.0351    1.2924 C   0  0  0  0  0  0  0  0  0  0  0  0
    0.1256   -0.9059    2.0751 O   0  0  0  0  0  0  0  0  0  0  0  0
    1.2604    0.9364    1.3265 N   0  0  0  0  0  0  0  0  0  0  0  0
    2.3035    0.8480    2.3333 C   0  0  0  0  0  0  0  0  0  0  0  0
    1.8688    1.4630    3.6677 C   0  0  0  0  0  0  0  0  0  0  0  0
    2.9640    1.4259    4.7099 C   0  0  0  0  0  0  0  0  0  0  0  0
    3.5669    2.5471    5.1482 C   0  0  0  0  0  0  0  0  0  0  0  0
    4.6664    2.5580    6.1722 C   0  0  0  0  0  0  0  0  0  0  0  0
    5.2490    1.1712    6.4481 C   0  0  0  0  0  0  0  0  0  0  0  0
    4.1442    0.1263    6.5526 C   0  0  0  0  0  0  0  0  0  0  0  0
    3.3238    0.0636    5.2614 C   0  0  0  0  0  0  0  0  0  0  0  0
   -6.9450    0.6766   -3.6377 H   0  0  0  0  0  0  0  0  0  0  0  0
   -8.3487   -0.9165   -2.4128 H   0  0  0  0  0  0  0  0  0  0  0  0
   -7.4742   -2.0785   -0.4016 H   0  0  0  0  0  0  0  0  0  0  0  0
   -5.1638   -1.6228    0.3747 H   0  0  0  0  0  0  0  0  0  0  0  0
   -3.7433   -0.0476   -0.8132 H   0  0  0  0  0  0  0  0  0  0  0  0
   -5.5129    3.5807   -6.0360 H   0  0  0  0  0  0  0  0  0  0  0  0
   -4.2612    4.7358   -5.5984 H   0  0  0  0  0  0  0  0  0  0  0  0
   -3.8948    3.3704   -6.6962 H   0  0  0  0  0  0  0  0  0  0  0  0
   -0.9742    3.1396   -3.2929 H   0  0  0  0  0  0  0  0  0  0  0  0
    0.8610    4.0794   -4.4925 H   0  0  0  0  0  0  0  0  0  0  0  0
    1.0065    6.2678   -3.2186 H   0  0  0  0  0  0  0  0  0  0  0  0
   -0.2104    5.1850   -2.5404 H   0  0  0  0  0  0  0  0  0  0  0  0
   -0.7193    6.5441   -3.5502 H   0  0  0  0  0  0  0  0  0  0  0  0
    0.7549    5.1091   -6.7539 H   0  0  0  0  0  0  0  0  0  0  0  0
   -0.0076    6.5536   -6.0865 H   0  0  0  0  0  0  0  0  0  0  0  0
    1.6567    6.1394   -5.6286 H   0  0  0  0  0  0  0  0  0  0  0  0
   -0.7764    0.6400   -3.2140 H   0  0  0  0  0  0  0  0  0  0  0  0
   -1.7853   -0.5700   -2.4134 H   0  0  0  0  0  0  0  0  0  0  0  0
    0.3302   -0.7272   -1.3323 H   0  0  0  0  0  0  0  0  0  0  0  0
    0.5504    1.0119   -1.2993 H   0  0  0  0  0  0  0  0  0  0  0  0
   -1.5384   -0.5557    0.2914 H   0  0  0  0  0  0  0  0  0  0  0  0
   -2.5536    1.3272    0.9368 H   0  0  0  0  0  0  0  0  0  0  0  0
   -1.0885    2.2489    1.1579 H   0  0  0  0  0  0  0  0  0  0  0  0
   -2.6926    3.0723   -0.6493 H   0  0  0  0  0  0  0  0  0  0  0  0
   -1.0021    2.9256   -1.1325 H   0  0  0  0  0  0  0  0  0  0  0  0
    1.2342    1.7628    0.7450 H   0  0  0  0  0  0  0  0  0  0  0  0
    3.1768    1.3740    1.9330 H   0  0  0  0  0  0  0  0  0  0  0  0
    2.5733   -0.2064    2.4594 H   0  0  0  0  0  0  0  0  0  0  0  0
    0.9845    0.9437    4.0572 H   0  0  0  0  0  0  0  0  0  0  0  0
    1.5455    2.4981    3.4917 H   0  0  0  0  0  0  0  0  0  0  0  0
    3.2666    3.5184    4.7608 H   0  0  0  0  0  0  0  0  0  0  0  0
    4.2686    2.9839    7.1016 H   0  0  0  0  0  0  0  0  0  0  0  0
    5.4710    3.2208    5.8324 H   0  0  0  0  0  0  0  0  0  0  0  0
    5.8387    1.1922    7.3716 H   0  0  0  0  0  0  0  0  0  0  0  0
    5.9350    0.8957    5.6367 H   0  0  0  0  0  0  0  0  0  0  0  0
    3.4855    0.3729    7.3951 H   0  0  0  0  0  0  0  0  0  0  0  0
    4.5759   -0.8581    6.7642 H   0  0  0  0  0  0  0  0  0  0  0  0
    3.8959   -0.4814    4.5014 H   0  0  0  0  0  0  0  0  0  0  0  0
    2.4128   -0.5146    5.4580 H   0  0  0  0  0  0  0  0  0  0  0  0
  1  2  2  0
  2  3  1  0
  3  4  2  0
  4  5  1  0
  5  6  2  0
  6  7  1  0
  7  8  1  0
  8  9  2  0
  9 10  1  0
  7 11  1  0
 11 12  2  0
 12 13  1  0
 13 14  1  0
 14 15  2  0
 14 16  1  0
 16 17  1  0
 16 18  1  0
 11 19  1  0
 19 20  1  0
 20 21  1  0
 21 22  1  0
 22 23  1  0
 23 24  1  0
 22 25  1  0
 25 26  2  0
 25 27  1  0
 27 28  1  0
 28 29  1  0
 29 30  1  0
 30 31  2  0
 31 32  1  0
 32 33  1  0
 33 34  1  0
 34 35  1  0
  6  1  1  0
 12  9  1  0
 24 19  1  0
 35 30  1  0
  1 36  1  0
  2 37  1  0
  3 38  1  0
  4 39  1  0
  5 40  1  0
 10 41  1  0
 10 42  1  0
 10 43  1  0
 13 44  1  0
 16 45  1  0
 17 46  1  0
 17 47  1  0
 17 48  1  0
 18 49  1  0
 18 50  1  0
 18 51  1  0
 20 52  1  0
 20 53  1  0
 21 54  1  0
 21 55  1  0
 22 56  1  0
 23 57  1  0
 23 58  1  0
 24 59  1  0
 24 60  1  0
 27 61  1  0
 28 62  1  0
 28 63  1  0
 29 64  1  0
 29 65  1  0
 31 66  1  0
 32 67  1  0
 32 68  1  0
 33 69  1  0
 33 70  1  0
 34 71  1  0
 34 72  1  0
 35 73  1  0
 35 74  1  0
M  END
>  <mol_id>  (19) 
G785-0920

>  <drugclip_rank>  (19) 
19

>  <conformer>  (19) 
20

>  <align_rmsd>  (19) 
0.632

$$$$
Z26788076
     RDKit          3D

 72 74  0  0  0  0  0  0  0  0999 V2000
    3.6691    4.5912    1.9160 C   0  0  0  0  0  0  0  0  0  0  0  0
    2.4526    3.8364    1.3987 C   0  0  0  0  0  0  0  0  0  0  0  0
    2.7191    2.9734    0.2253 N   0  0  0  0  0  0  0  0  0  0  0  0
    3.2456    3.6033   -0.9971 C   0  0  0  0  0  0  0  0  0  0  0  0
    2.2268    4.5601   -1.6003 C   0  0  0  0  0  0  0  0  0  0  0  0
    3.3412    1.7470    0.5779 C   0  0  0  0  0  0  0  0  0  0  0  0
    4.7338    1.5824    0.5878 C   0  0  0  0  0  0  0  0  0  0  0  0
    5.3028    0.3678    0.9766 C   0  0  0  0  0  0  0  0  0  0  0  0
    4.4793   -0.6960    1.3585 C   0  0  0  0  0  0  0  0  0  0  0  0
    5.2108   -2.2604    1.8019 S   0  0  0  0  0  0  0  0  0  0  0  0
    4.3236   -3.3075    1.3416 O   0  0  0  0  0  0  0  0  0  0  0  0
    6.5959   -2.2218    1.3756 O   0  0  0  0  0  0  0  0  0  0  0  0
    5.1948   -2.2342    3.4998 N   0  0  0  0  0  0  0  0  0  0  0  0
    6.0906   -1.2733    4.1799 C   0  0  0  0  0  0  0  0  0  0  0  0
    7.0639   -2.0265    5.0711 C   0  0  0  0  0  0  0  0  0  0  0  0
    3.9125   -2.5114    4.1885 C   0  0  0  0  0  0  0  0  0  0  0  0
    3.9437   -3.9171    4.7641 C   0  0  0  0  0  0  0  0  0  0  0  0
    3.0886   -0.5702    1.3197 C   0  0  0  0  0  0  0  0  0  0  0  0
    2.5207    0.6473    0.9459 C   0  0  0  0  0  0  0  0  0  0  0  0
    1.1296    0.8594    0.8448 N   0  0  0  0  0  0  0  0  0  0  0  0
    0.1130    0.0471    1.2943 C   0  0  0  0  0  0  0  0  0  0  0  0
    0.2418   -0.9692    1.9675 O   0  0  0  0  0  0  0  0  0  0  0  0
   -1.2634    0.5093    0.9519 C   0  0  0  0  0  0  0  0  0  0  0  0
   -2.3129    0.1818    1.8235 C   0  0  0  0  0  0  0  0  0  0  0  0
   -3.6200    0.5889    1.5460 C   0  0  0  0  0  0  0  0  0  0  0  0
   -3.8892    1.3142    0.3870 C   0  0  0  0  0  0  0  0  0  0  0  0
   -2.8471    1.6142   -0.4968 C   0  0  0  0  0  0  0  0  0  0  0  0
   -1.5328    1.2217   -0.2228 C   0  0  0  0  0  0  0  0  0  0  0  0
   -3.2153    2.5204   -1.9791 S   0  0  0  0  0  0  0  0  0  0  0  0
   -4.0798    3.6198   -1.6069 O   0  0  0  0  0  0  0  0  0  0  0  0
   -1.9766    2.7491   -2.6932 O   0  0  0  0  0  0  0  0  0  0  0  0
   -4.1283    1.4030   -2.8651 N   0  0  0  0  0  0  0  0  0  0  0  0
   -3.4533    0.1501   -3.3030 C   0  0  0  0  0  0  0  0  0  0  0  0
   -3.7639    0.0200   -4.7889 C   0  0  0  0  0  0  0  0  0  0  0  0
   -5.0744    0.7671   -4.9362 C   0  0  0  0  0  0  0  0  0  0  0  0
   -4.8588    1.9663   -4.0282 C   0  0  0  0  0  0  0  0  0  0  0  0
    3.3860    5.2056    2.7770 H   0  0  0  0  0  0  0  0  0  0  0  0
    4.4608    3.9118    2.2439 H   0  0  0  0  0  0  0  0  0  0  0  0
    4.0834    5.2615    1.1570 H   0  0  0  0  0  0  0  0  0  0  0  0
    1.6731    4.5601    1.1322 H   0  0  0  0  0  0  0  0  0  0  0  0
    2.0257    3.2444    2.2191 H   0  0  0  0  0  0  0  0  0  0  0  0
    3.4528    2.8305   -1.7500 H   0  0  0  0  0  0  0  0  0  0  0  0
    4.1859    4.1325   -0.8066 H   0  0  0  0  0  0  0  0  0  0  0  0
    2.0555    5.4269   -0.9550 H   0  0  0  0  0  0  0  0  0  0  0  0
    1.2652    4.0598   -1.7603 H   0  0  0  0  0  0  0  0  0  0  0  0
    2.5849    4.9336   -2.5658 H   0  0  0  0  0  0  0  0  0  0  0  0
    5.3904    2.4017    0.3091 H   0  0  0  0  0  0  0  0  0  0  0  0
    6.3853    0.2591    0.9717 H   0  0  0  0  0  0  0  0  0  0  0  0
    5.5133   -0.5528    4.7725 H   0  0  0  0  0  0  0  0  0  0  0  0
    6.6658   -0.6834    3.4585 H   0  0  0  0  0  0  0  0  0  0  0  0
    7.6168   -2.7804    4.5021 H   0  0  0  0  0  0  0  0  0  0  0  0
    7.7862   -1.3340    5.5131 H   0  0  0  0  0  0  0  0  0  0  0  0
    6.5428   -2.5358    5.8868 H   0  0  0  0  0  0  0  0  0  0  0  0
    3.7314   -1.7879    4.9921 H   0  0  0  0  0  0  0  0  0  0  0  0
    3.0631   -2.4262    3.5068 H   0  0  0  0  0  0  0  0  0  0  0  0
    4.7425   -4.0288    5.5031 H   0  0  0  0  0  0  0  0  0  0  0  0
    2.9929   -4.1464    5.2553 H   0  0  0  0  0  0  0  0  0  0  0  0
    4.1106   -4.6630    3.9791 H   0  0  0  0  0  0  0  0  0  0  0  0
    2.4673   -1.4304    1.5468 H   0  0  0  0  0  0  0  0  0  0  0  0
    0.9163    1.7747    0.4545 H   0  0  0  0  0  0  0  0  0  0  0  0
   -2.1105   -0.3907    2.7274 H   0  0  0  0  0  0  0  0  0  0  0  0
   -4.4250    0.3361    2.2325 H   0  0  0  0  0  0  0  0  0  0  0  0
   -4.9070    1.6337    0.1683 H   0  0  0  0  0  0  0  0  0  0  0  0
   -0.7421    1.4471   -0.9342 H   0  0  0  0  0  0  0  0  0  0  0  0
   -2.3738    0.1549   -3.1311 H   0  0  0  0  0  0  0  0  0  0  0  0
   -3.8890   -0.6833   -2.7410 H   0  0  0  0  0  0  0  0  0  0  0  0
   -3.8262   -1.0239   -5.1118 H   0  0  0  0  0  0  0  0  0  0  0  0
   -2.9827    0.5136   -5.3798 H   0  0  0  0  0  0  0  0  0  0  0  0
   -5.2855    1.0548   -5.9688 H   0  0  0  0  0  0  0  0  0  0  0  0
   -5.9043    0.1500   -4.5688 H   0  0  0  0  0  0  0  0  0  0  0  0
   -4.2504    2.7217   -4.5384 H   0  0  0  0  0  0  0  0  0  0  0  0
   -5.8067    2.4106   -3.7155 H   0  0  0  0  0  0  0  0  0  0  0  0
  1  2  1  0
  2  3  1  0
  3  4  1  0
  4  5  1  0
  3  6  1  0
  6  7  2  0
  7  8  1  0
  8  9  2  0
  9 10  1  0
 10 11  2  0
 10 12  2  0
 10 13  1  0
 13 14  1  0
 14 15  1  0
 13 16  1  0
 16 17  1  0
  9 18  1  0
 18 19  2  0
 19 20  1  0
 20 21  1  0
 21 22  2  0
 21 23  1  0
 23 24  2  0
 24 25  1  0
 25 26  2  0
 26 27  1  0
 27 28  2  0
 27 29  1  0
 29 30  2  0
 29 31  2  0
 29 32  1  0
 32 33  1  0
 33 34  1  0
 34 35  1  0
 35 36  1  0
 19  6  1  0
 28 23  1  0
 36 32  1  0
  1 37  1  0
  1 38  1  0
  1 39  1  0
  2 40  1  0
  2 41  1  0
  4 42  1  0
  4 43  1  0
  5 44  1  0
  5 45  1  0
  5 46  1  0
  7 47  1  0
  8 48  1  0
 14 49  1  0
 14 50  1  0
 15 51  1  0
 15 52  1  0
 15 53  1  0
 16 54  1  0
 16 55  1  0
 17 56  1  0
 17 57  1  0
 17 58  1  0
 18 59  1  0
 20 60  1  0
 24 61  1  0
 25 62  1  0
 26 63  1  0
 28 64  1  0
 33 65  1  0
 33 66  1  0
 34 67  1  0
 34 68  1  0
 35 69  1  0
 35 70  1  0
 36 71  1  0
 36 72  1  0
M  END
>  <mol_id>  (20) 
Z26788076

>  <drugclip_rank>  (20) 
20

>  <conformer>  (20) 
8

>  <align_rmsd>  (20) 
0.525

$$$$
Z26800884
     RDKit          3D

 73 76  0  0  0  0  0  0  0  0999 V2000
    3.8253   -2.0780    5.8423 C   0  0  0  0  0  0  0  0  0  0  0  0
    3.8299   -1.4831    4.4440 C   0  0  0  0  0  0  0  0  0  0  0  0
    5.1604   -1.6739    3.8133 N   0  0  0  0  0  0  0  0  0  0  0  0
    6.2116   -0.7378    4.2794 C   0  0  0  0  0  0  0  0  0  0  0  0
    7.3412   -1.5240    4.9240 C   0  0  0  0  0  0  0  0  0  0  0  0
    5.1810   -2.0900    2.1584 S   0  0  0  0  0  0  0  0  0  0  0  0
    4.2396   -3.1694    1.9456 O   0  0  0  0  0  0  0  0  0  0  0  0
    6.5643   -2.2152    1.7454 O   0  0  0  0  0  0  0  0  0  0  0  0
    4.5238   -0.6320    1.3694 C   0  0  0  0  0  0  0  0  0  0  0  0
    5.3963    0.3324    0.8591 C   0  0  0  0  0  0  0  0  0  0  0  0
    4.8822    1.4685    0.2338 C   0  0  0  0  0  0  0  0  0  0  0  0
    3.4987    1.6398    0.0953 C   0  0  0  0  0  0  0  0  0  0  0  0
    2.9242    2.7794   -0.5119 N   0  0  0  0  0  0  0  0  0  0  0  0
    3.3913    3.0641   -1.8857 C   0  0  0  0  0  0  0  0  0  0  0  0
    4.0081    4.4574   -1.8187 C   0  0  0  0  0  0  0  0  0  0  0  0
    3.2167    5.1242   -0.7077 C   0  0  0  0  0  0  0  0  0  0  0  0
    3.0565    4.0001    0.3098 C   0  0  0  0  0  0  0  0  0  0  0  0
    2.6299    0.6331    0.5862 C   0  0  0  0  0  0  0  0  0  0  0  0
    3.1403   -0.5002    1.2147 C   0  0  0  0  0  0  0  0  0  0  0  0
    1.2584    0.8611    0.3602 N   0  0  0  0  0  0  0  0  0  0  0  0
    0.1948    0.0425    0.6519 C   0  0  0  0  0  0  0  0  0  0  0  0
    0.2121   -1.0312    1.2396 O   0  0  0  0  0  0  0  0  0  0  0  0
   -1.0994    0.5445    0.1316 C   0  0  0  0  0  0  0  0  0  0  0  0
   -1.5239    1.8523    0.4015 C   0  0  0  0  0  0  0  0  0  0  0  0
   -2.7262    2.3125   -0.1373 C   0  0  0  0  0  0  0  0  0  0  0  0
   -3.4872    1.4616   -0.9466 C   0  0  0  0  0  0  0  0  0  0  0  0
   -3.0681    0.1525   -1.2150 C   0  0  0  0  0  0  0  0  0  0  0  0
   -1.8757   -0.3107   -0.6605 C   0  0  0  0  0  0  0  0  0  0  0  0
   -5.0054    2.0412   -1.6724 S   0  0  0  0  0  0  0  0  0  0  0  0
   -4.8505    1.9038   -3.1042 O   0  0  0  0  0  0  0  0  0  0  0  0
   -5.3347    3.3147   -1.0694 O   0  0  0  0  0  0  0  0  0  0  0  0
   -6.1341    0.8894   -1.1319 N   0  0  0  0  0  0  0  0  0  0  0  0
   -6.4075    0.8167    0.3251 C   0  0  0  0  0  0  0  0  0  0  0  0
   -7.5075    1.7839    0.7544 C   0  0  0  0  0  0  0  0  0  0  0  0
   -8.7603    1.6495   -0.1060 C   0  0  0  0  0  0  0  0  0  0  0  0
   -8.4155    1.7459   -1.5880 C   0  0  0  0  0  0  0  0  0  0  0  0
   -7.3518    0.7234   -1.9605 C   0  0  0  0  0  0  0  0  0  0  0  0
    4.5847   -1.6182    6.4833 H   0  0  0  0  0  0  0  0  0  0  0  0
    2.8481   -1.9291    6.3143 H   0  0  0  0  0  0  0  0  0  0  0  0
    4.0283   -3.1546    5.8056 H   0  0  0  0  0  0  0  0  0  0  0  0
    3.0452   -1.9843    3.8683 H   0  0  0  0  0  0  0  0  0  0  0  0
    3.5818   -0.4154    4.4818 H   0  0  0  0  0  0  0  0  0  0  0  0
    5.8084   -0.0204    5.0046 H   0  0  0  0  0  0  0  0  0  0  0  0
    6.6060   -0.1348    3.4552 H   0  0  0  0  0  0  0  0  0  0  0  0
    6.9828   -2.1062    5.7801 H   0  0  0  0  0  0  0  0  0  0  0  0
    7.7975   -2.2218    4.2147 H   0  0  0  0  0  0  0  0  0  0  0  0
    8.1210   -0.8408    5.2769 H   0  0  0  0  0  0  0  0  0  0  0  0
    6.4732    0.2074    0.9451 H   0  0  0  0  0  0  0  0  0  0  0  0
    5.5703    2.2164   -0.1478 H   0  0  0  0  0  0  0  0  0  0  0  0
    2.5078    3.0779   -2.5389 H   0  0  0  0  0  0  0  0  0  0  0  0
    4.0892    2.3239   -2.2951 H   0  0  0  0  0  0  0  0  0  0  0  0
    5.0666    4.3919   -1.5408 H   0  0  0  0  0  0  0  0  0  0  0  0
    3.9343    4.9914   -2.7703 H   0  0  0  0  0  0  0  0  0  0  0  0
    3.7216    6.0003   -0.2906 H   0  0  0  0  0  0  0  0  0  0  0  0
    2.2352    5.4419   -1.0796 H   0  0  0  0  0  0  0  0  0  0  0  0
    3.9282    3.9754    0.9734 H   0  0  0  0  0  0  0  0  0  0  0  0
    2.1585    4.1415    0.9188 H   0  0  0  0  0  0  0  0  0  0  0  0
    2.4834   -1.2847    1.5765 H   0  0  0  0  0  0  0  0  0  0  0  0
    1.1039    1.7133   -0.1756 H   0  0  0  0  0  0  0  0  0  0  0  0
   -0.9301    2.5077    1.0358 H   0  0  0  0  0  0  0  0  0  0  0  0
   -3.0573    3.3275    0.0699 H   0  0  0  0  0  0  0  0  0  0  0  0
   -3.6628   -0.4966   -1.8543 H   0  0  0  0  0  0  0  0  0  0  0  0
   -1.5338   -1.3257   -0.8651 H   0  0  0  0  0  0  0  0  0  0  0  0
   -6.6983   -0.2151    0.5625 H   0  0  0  0  0  0  0  0  0  0  0  0
   -5.4994    1.0134    0.9050 H   0  0  0  0  0  0  0  0  0  0  0  0
   -7.7617    1.6047    1.8059 H   0  0  0  0  0  0  0  0  0  0  0  0
   -7.1413    2.8179    0.6968 H   0  0  0  0  0  0  0  0  0  0  0  0
   -9.4757    2.4338    0.1606 H   0  0  0  0  0  0  0  0  0  0  0  0
   -9.2425    0.6860    0.0979 H   0  0  0  0  0  0  0  0  0  0  0  0
   -9.3172    1.5735   -2.1850 H   0  0  0  0  0  0  0  0  0  0  0  0
   -8.0654    2.7602   -1.8179 H   0  0  0  0  0  0  0  0  0  0  0  0
   -7.1152    0.7898   -3.0267 H   0  0  0  0  0  0  0  0  0  0  0  0
   -7.7316   -0.2928   -1.8024 H   0  0  0  0  0  0  0  0  0  0  0  0
  1  2  1  0
  2  3  1  0
  3  4  1  0
  4  5  1  0
  3  6  1  0
  6  7  2  0
  6  8  2  0
  6  9  1  0
  9 10  2  0
 10 11  1  0
 11 12  2  0
 12 13  1  0
 13 14  1  0
 14 15  1  0
 15 16  1  0
 16 17  1  0
 12 18  1  0
 18 19  2  0
 18 20  1  0
 20 21  1  0
 21 22  2  0
 21 23  1  0
 23 24  2  0
 24 25  1  0
 25 26  2  0
 26 27  1  0
 27 28  2  0
 26 29  1  0
 29 30  2  0
 29 31  2  0
 29 32  1  0
 32 33  1  0
 33 34  1  0
 34 35  1  0
 35 36  1  0
 36 37  1  0
 19  9  1  0
 17 13  1  0
 28 23  1  0
 37 32  1  0
  1 38  1  0
  1 39  1  0
  1 40  1  0
  2 41  1  0
  2 42  1  0
  4 43  1  0
  4 44  1  0
  5 45  1  0
  5 46  1  0
  5 47  1  0
 10 48  1  0
 11 49  1  0
 14 50  1  0
 14 51  1  0
 15 52  1  0
 15 53  1  0
 16 54  1  0
 16 55  1  0
 17 56  1  0
 17 57  1  0
 19 58  1  0
 20 59  1  0
 24 60  1  0
 25 61  1  0
 27 62  1  0
 28 63  1  0
 33 64  1  0
 33 65  1  0
 34 66  1  0
 34 67  1  0
 35 68  1  0
 35 69  1  0
 36 70  1  0
 36 71  1  0
 37 72  1  0
 37 73  1  0
M  END
>  <mol_id>  (21) 
Z26800884

>  <drugclip_rank>  (21) 
21

>  <conformer>  (21) 
16

>  <align_rmsd>  (21) 
0.965

$$$$
Z8786580910
     RDKit          3D

 75 79  0  0  0  0  0  0  0  0999 V2000
   -5.0999    1.6099    1.4557 C   0  0  0  0  0  0  0  0  0  0  0  0
   -5.5519    0.7442    0.3083 C   0  0  0  0  0  0  0  0  0  0  0  0
   -6.9052    0.3630    0.2402 C   0  0  0  0  0  0  0  0  0  0  0  0
   -7.3758   -0.4339   -0.8011 C   0  0  0  0  0  0  0  0  0  0  0  0
   -6.5078   -0.8441   -1.8059 C   0  0  0  0  0  0  0  0  0  0  0  0
   -5.1638   -0.4707   -1.7538 C   0  0  0  0  0  0  0  0  0  0  0  0
   -4.6556    0.3060   -0.6917 C   0  0  0  0  0  0  0  0  0  0  0  0
   -3.2226    0.6427   -0.6849 C   0  0  0  0  0  0  0  0  0  0  0  0
   -2.8265    1.4534   -1.6995 N   0  0  0  0  0  0  0  0  0  0  0  0
   -1.5092    1.7343   -1.7076 C   0  0  0  0  0  0  0  0  0  0  0  0
   -0.5584    1.2977   -0.7971 C   0  0  0  0  0  0  0  0  0  0  0  0
   -0.8380    2.5215   -2.6121 N   0  0  0  0  0  0  0  0  0  0  0  0
    0.4956    2.5882   -2.3751 N   0  0  0  0  0  0  0  0  0  0  0  0
    0.6593    1.8207   -1.2912 C   0  0  0  0  0  0  0  0  0  0  0  0
   -1.4019    3.2705   -3.7296 C   0  0  0  0  0  0  0  0  0  0  0  0
   -2.0270    2.3554   -4.7818 C   0  0  0  0  0  0  0  0  0  0  0  0
   -2.3791    4.3469   -3.2584 C   0  0  0  0  0  0  0  0  0  0  0  0
   -2.3661    0.1431    0.2935 C   0  0  0  0  0  0  0  0  0  0  0  0
   -1.0133    0.4995    0.2642 C   0  0  0  0  0  0  0  0  0  0  0  0
   -0.1205    0.0230    1.3355 C   0  0  0  0  0  0  0  0  0  0  0  0
   -0.2716   -1.0982    1.7981 O   0  0  0  0  0  0  0  0  0  0  0  0
    0.8066    0.9334    1.7833 N   0  0  0  0  0  0  0  0  0  0  0  0
    1.9006    0.5545    2.6469 C   0  0  0  0  0  0  0  0  0  0  0  0
    3.1877    0.6151    1.8682 C   0  0  0  0  0  0  0  0  0  0  0  0
    3.9725    1.7753    1.8584 C   0  0  0  0  0  0  0  0  0  0  0  0
    5.1344    1.8311    1.0879 C   0  0  0  0  0  0  0  0  0  0  0  0
    5.5199    0.7340    0.3150 C   0  0  0  0  0  0  0  0  0  0  0  0
    4.7432   -0.4321    0.3002 C   0  0  0  0  0  0  0  0  0  0  0  0
    3.5799   -0.4795    1.0834 C   0  0  0  0  0  0  0  0  0  0  0  0
    5.1670   -1.6419   -0.5127 C   0  0  0  0  0  0  0  0  0  0  0  0
    4.1117   -2.1104   -1.4268 N   0  0  0  0  0  0  0  0  0  0  0  0
    3.9104   -1.2309   -2.5844 C   0  0  0  0  0  0  0  0  0  0  0  0
    4.9812   -1.3902   -3.6663 C   0  0  0  0  0  0  0  0  0  0  0  0
    5.0696   -2.8389   -4.1416 C   0  0  0  0  0  0  0  0  0  0  0  0
    5.2744   -3.8135   -2.9749 C   0  0  0  0  0  0  0  0  0  0  0  0
    4.2930   -3.5175   -1.8217 C   0  0  0  0  0  0  0  0  0  0  0  0
    6.7276   -3.9098   -2.5203 C   0  0  0  0  0  0  0  0  0  0  0  0
    7.1169   -3.7646   -1.3676 O   0  0  0  0  0  0  0  0  0  0  0  0
    7.6260   -4.2293   -3.5004 N   0  0  0  0  0  0  0  0  0  0  0  0
   -4.5434    2.4805    1.0917 H   0  0  0  0  0  0  0  0  0  0  0  0
   -5.9521    1.9907    2.0285 H   0  0  0  0  0  0  0  0  0  0  0  0
   -4.4716    1.0306    2.1414 H   0  0  0  0  0  0  0  0  0  0  0  0
   -7.6054    0.6884    1.0069 H   0  0  0  0  0  0  0  0  0  0  0  0
   -8.4243   -0.7210   -0.8355 H   0  0  0  0  0  0  0  0  0  0  0  0
   -6.8689   -1.4581   -2.6259 H   0  0  0  0  0  0  0  0  0  0  0  0
   -4.4938   -0.7928   -2.5497 H   0  0  0  0  0  0  0  0  0  0  0  0
    1.6626    1.6769   -0.9063 H   0  0  0  0  0  0  0  0  0  0  0  0
   -0.5554    3.7808   -4.2060 H   0  0  0  0  0  0  0  0  0  0  0  0
   -2.3567    2.9355   -5.6525 H   0  0  0  0  0  0  0  0  0  0  0  0
   -1.2993    1.6130   -5.1295 H   0  0  0  0  0  0  0  0  0  0  0  0
   -2.8954    1.8111   -4.3932 H   0  0  0  0  0  0  0  0  0  0  0  0
   -1.9195    4.9909   -2.5007 H   0  0  0  0  0  0  0  0  0  0  0  0
   -3.2838    3.9140   -2.8198 H   0  0  0  0  0  0  0  0  0  0  0  0
   -2.6863    4.9841   -4.0959 H   0  0  0  0  0  0  0  0  0  0  0  0
   -2.7417   -0.5100    1.0792 H   0  0  0  0  0  0  0  0  0  0  0  0
    0.8417    1.8601    1.3869 H   0  0  0  0  0  0  0  0  0  0  0  0
    1.9245    1.2615    3.4841 H   0  0  0  0  0  0  0  0  0  0  0  0
    1.7512   -0.4478    3.0639 H   0  0  0  0  0  0  0  0  0  0  0  0
    3.6850    2.6436    2.4472 H   0  0  0  0  0  0  0  0  0  0  0  0
    5.7418    2.7324    1.0877 H   0  0  0  0  0  0  0  0  0  0  0  0
    6.4323    0.7956   -0.2760 H   0  0  0  0  0  0  0  0  0  0  0  0
    2.9665   -1.3805    1.0708 H   0  0  0  0  0  0  0  0  0  0  0  0
    5.4000   -2.4223    0.2260 H   0  0  0  0  0  0  0  0  0  0  0  0
    6.0998   -1.4277   -1.0467 H   0  0  0  0  0  0  0  0  0  0  0  0
    2.9300   -1.4615   -3.0210 H   0  0  0  0  0  0  0  0  0  0  0  0
    3.8453   -0.1795   -2.2782 H   0  0  0  0  0  0  0  0  0  0  0  0
    4.7330   -0.7457   -4.5210 H   0  0  0  0  0  0  0  0  0  0  0  0
    5.9591   -1.0568   -3.2990 H   0  0  0  0  0  0  0  0  0  0  0  0
    5.8615   -2.9257   -4.8951 H   0  0  0  0  0  0  0  0  0  0  0  0
    4.1320   -3.0967   -4.6491 H   0  0  0  0  0  0  0  0  0  0  0  0
    5.0374   -4.8224   -3.3413 H   0  0  0  0  0  0  0  0  0  0  0  0
    4.5244   -4.1335   -0.9413 H   0  0  0  0  0  0  0  0  0  0  0  0
    3.3034   -3.8709   -2.1450 H   0  0  0  0  0  0  0  0  0  0  0  0
    7.3380   -4.6487   -4.3734 H   0  0  0  0  0  0  0  0  0  0  0  0
    8.5802   -4.3853   -3.2024 H   0  0  0  0  0  0  0  0  0  0  0  0
  1  2  1  0
  2  3  2  0
  3  4  1  0
  4  5  2  0
  5  6  1  0
  6  7  2  0
  7  8  1  0
  8  9  2  0
  9 10  1  0
 10 11  2  0
 10 12  1  0
 12 13  1  0
 13 14  2  0
 12 15  1  0
 15 16  1  0
 15 17  1  0
  8 18  1  0
 18 19  2  0
 19 20  1  0
 20 21  2  0
 20 22  1  0
 22 23  1  0
 23 24  1  0
 24 25  2  0
 25 26  1  0
 26 27  2  0
 27 28  1  0
 28 29  2  0
 28 30  1  0
 30 31  1  0
 31 32  1  0
 32 33  1  0
 33 34  1  0
 34 35  1  0
 35 36  1  0
 35 37  1  0
 37 38  2  0
 37 39  1  0
  7  2  1  0
 19 11  1  0
 14 11  1  0
 29 24  1  0
 36 31  1  0
  1 40  1  0
  1 41  1  0
  1 42  1  0
  3 43  1  0
  4 44  1  0
  5 45  1  0
  6 46  1  0
 14 47  1  0
 15 48  1  0
 16 49  1  0
 16 50  1  0
 16 51  1  0
 17 52  1  0
 17 53  1  0
 17 54  1  0
 18 55  1  0
 22 56  1  0
 23 57  1  0
 23 58  1  0
 25 59  1  0
 26 60  1  0
 27 61  1  0
 29 62  1  0
 30 63  1  0
 30 64  1  0
 32 65  1  0
 32 66  1  0
 33 67  1  0
 33 68  1  0
 34 69  1  0
 34 70  1  0
 35 71  1  0
 36 72  1  0
 36 73  1  0
 39 74  1  0
 39 75  1  0
M  END
>  <mol_id>  (22) 
Z8786580910

>  <drugclip_rank>  (22) 
22

>  <conformer>  (22) 
25

>  <align_rmsd>  (22) 
0.736

$$$$
STK077824
     RDKit          3D

 69 72  0  0  0  0  0  0  0  0999 V2000
   -4.6801   -3.9676  -10.7308 C   0  0  0  0  0  0  0  0  0  0  0  0
   -5.4983   -4.8985   -9.8134 C   0  0  0  0  0  0  0  0  0  0  0  0
   -4.6163   -6.0877   -9.4191 C   0  0  0  0  0  0  0  0  0  0  0  0
   -6.7443   -5.3566  -10.5803 C   0  0  0  0  0  0  0  0  0  0  0  0
   -5.9090   -4.0730   -8.6349 N   0  0  0  0  0  0  0  0  0  0  0  0
   -6.4114   -4.8313   -7.2024 S   0  0  0  0  0  0  0  0  0  0  0  0
   -5.2161   -4.9658   -6.3958 O   0  0  0  0  0  0  0  0  0  0  0  0
   -7.2432   -5.9720   -7.5057 O   0  0  0  0  0  0  0  0  0  0  0  0
   -7.4245   -3.5456   -6.4798 C   0  0  0  0  0  0  0  0  0  0  0  0
   -6.7978   -2.6818   -5.5624 C   0  0  0  0  0  0  0  0  0  0  0  0
   -7.5084   -1.6476   -4.9342 C   0  0  0  0  0  0  0  0  0  0  0  0
   -8.8698   -1.5040   -5.2400 C   0  0  0  0  0  0  0  0  0  0  0  0
   -9.5009   -2.3670   -6.1417 C   0  0  0  0  0  0  0  0  0  0  0  0
   -8.7900   -3.3933   -6.7851 C   0  0  0  0  0  0  0  0  0  0  0  0
   -9.5246   -4.2586   -7.7685 C   0  0  0  0  0  0  0  0  0  0  0  0
   -6.8229   -0.7081   -4.0333 C   0  0  0  0  0  0  0  0  0  0  0  0
   -5.8747    0.0288   -4.6558 N   0  0  0  0  0  0  0  0  0  0  0  0
   -5.1912    0.9870   -3.9706 N   0  0  0  0  0  0  0  0  0  0  0  0
   -5.4344    1.2035   -2.6604 C   0  0  0  0  0  0  0  0  0  0  0  0
   -6.4173    0.4684   -1.9621 C   0  0  0  0  0  0  0  0  0  0  0  0
   -7.1214   -0.5361   -2.6679 C   0  0  0  0  0  0  0  0  0  0  0  0
   -6.7547    0.6960   -0.6040 C   0  0  0  0  0  0  0  0  0  0  0  0
   -7.7154   -0.0696    0.0567 C   0  0  0  0  0  0  0  0  0  0  0  0
   -8.3724   -1.0814   -0.6236 C   0  0  0  0  0  0  0  0  0  0  0  0
   -8.0838   -1.3094   -1.9687 C   0  0  0  0  0  0  0  0  0  0  0  0
   -4.6646    2.2336   -2.0711 N   0  0  0  0  0  0  0  0  0  0  0  0
   -3.7769    2.1002   -0.9726 C   0  0  0  0  0  0  0  0  0  0  0  0
   -3.3246    3.2667   -0.3463 C   0  0  0  0  0  0  0  0  0  0  0  0
   -2.4020    3.2023    0.7012 C   0  0  0  0  0  0  0  0  0  0  0  0
   -1.9023    1.9737    1.1330 C   0  0  0  0  0  0  0  0  0  0  0  0
   -2.3258    0.8073    0.4967 C   0  0  0  0  0  0  0  0  0  0  0  0
   -3.2495    0.8732   -0.5559 C   0  0  0  0  0  0  0  0  0  0  0  0
   -0.9941    2.0595    2.1508 O   0  0  0  0  0  0  0  0  0  0  0  0
   -0.5647    0.8507    2.7662 C   0  0  0  0  0  0  0  0  0  0  0  0
    0.5326    0.1045    2.0022 C   0  0  0  0  0  0  0  0  0  0  0  0
    0.6922   -1.1083    2.1070 O   0  0  0  0  0  0  0  0  0  0  0  0
    1.3353    0.9166    1.2283 N   0  0  0  0  0  0  0  0  0  0  0  0
    2.3280    0.3535    0.3524 C   0  0  0  0  0  0  0  0  0  0  0  0
   -3.7661   -3.6243  -10.2303 H   0  0  0  0  0  0  0  0  0  0  0  0
   -4.3822   -4.4787  -11.6530 H   0  0  0  0  0  0  0  0  0  0  0  0
   -5.2536   -3.0746  -11.0095 H   0  0  0  0  0  0  0  0  0  0  0  0
   -4.2335   -6.6002  -10.3085 H   0  0  0  0  0  0  0  0  0  0  0  0
   -5.1640   -6.8356   -8.8357 H   0  0  0  0  0  0  0  0  0  0  0  0
   -3.7548   -5.7661   -8.8233 H   0  0  0  0  0  0  0  0  0  0  0  0
   -6.4675   -5.8427  -11.5211 H   0  0  0  0  0  0  0  0  0  0  0  0
   -7.3388   -6.0774  -10.0112 H   0  0  0  0  0  0  0  0  0  0  0  0
   -7.3948   -4.5069  -10.8195 H   0  0  0  0  0  0  0  0  0  0  0  0
   -5.1513   -3.4378   -8.3659 H   0  0  0  0  0  0  0  0  0  0  0  0
   -5.7359   -2.7998   -5.3393 H   0  0  0  0  0  0  0  0  0  0  0  0
   -9.4500   -0.7003   -4.7889 H   0  0  0  0  0  0  0  0  0  0  0  0
  -10.5597   -2.2173   -6.3523 H   0  0  0  0  0  0  0  0  0  0  0  0
   -9.6344   -5.2753   -7.3861 H   0  0  0  0  0  0  0  0  0  0  0  0
   -9.0075   -4.2663   -8.7309 H   0  0  0  0  0  0  0  0  0  0  0  0
  -10.5333   -3.8739   -7.9605 H   0  0  0  0  0  0  0  0  0  0  0  0
   -6.2629    1.4885   -0.0420 H   0  0  0  0  0  0  0  0  0  0  0  0
   -7.9441    0.1293    1.1010 H   0  0  0  0  0  0  0  0  0  0  0  0
   -9.1153   -1.6889   -0.1140 H   0  0  0  0  0  0  0  0  0  0  0  0
   -8.6212   -2.1127   -2.4701 H   0  0  0  0  0  0  0  0  0  0  0  0
   -4.1136    2.5917   -2.8530 H   0  0  0  0  0  0  0  0  0  0  0  0
   -3.7013    4.2364   -0.6637 H   0  0  0  0  0  0  0  0  0  0  0  0
   -2.0732    4.1211    1.1807 H   0  0  0  0  0  0  0  0  0  0  0  0
   -1.9523   -0.1732    0.7756 H   0  0  0  0  0  0  0  0  0  0  0  0
   -3.5405   -0.0530   -1.0448 H   0  0  0  0  0  0  0  0  0  0  0  0
   -0.1383    1.1217    3.7387 H   0  0  0  0  0  0  0  0  0  0  0  0
   -1.4088    0.1812    2.9661 H   0  0  0  0  0  0  0  0  0  0  0  0
    0.9672    1.8400    1.0196 H   0  0  0  0  0  0  0  0  0  0  0  0
    1.8233   -0.1484   -0.4775 H   0  0  0  0  0  0  0  0  0  0  0  0
    2.9569    1.1624   -0.0263 H   0  0  0  0  0  0  0  0  0  0  0  0
    2.9367   -0.3709    0.9004 H   0  0  0  0  0  0  0  0  0  0  0  0
  1  2  1  0
  2  3  1  0
  2  4  1  0
  2  5  1  0
  5  6  1  0
  6  7  2  0
  6  8  2  0
  6  9  1  0
  9 10  2  0
 10 11  1  0
 11 12  2  0
 12 13  1  0
 13 14  2  0
 14 15  1  0
 11 16  1  0
 16 17  2  0
 17 18  1  0
 18 19  2  0
 19 20  1  0
 20 21  2  0
 20 22  1  0
 22 23  2  0
 23 24  1  0
 24 25  2  0
 19 26  1  0
 26 27  1  0
 27 28  2  0
 28 29  1  0
 29 30  2  0
 30 31  1  0
 31 32  2  0
 30 33  1  0
 33 34  1  0
 34 35  1  0
 35 36  2  0
 35 37  1  0
 37 38  1  0
 14  9  1  0
 21 16  1  0
 25 21  1  0
 32 27  1  0
  1 39  1  0
  1 40  1  0
  1 41  1  0
  3 42  1  0
  3 43  1  0
  3 44  1  0
  4 45  1  0
  4 46  1  0
  4 47  1  0
  5 48  1  0
 10 49  1  0
 12 50  1  0
 13 51  1  0
 15 52  1  0
 15 53  1  0
 15 54  1  0
 22 55  1  0
 23 56  1  0
 24 57  1  0
 25 58  1  0
 26 59  1  0
 28 60  1  0
 29 61  1  0
 31 62  1  0
 32 63  1  0
 34 64  1  0
 34 65  1  0
 37 66  1  0
 38 67  1  0
 38 68  1  0
 38 69  1  0
M  END
>  <mol_id>  (23) 
STK077824

>  <drugclip_rank>  (23) 
23

>  <conformer>  (23) 
10

>  <align_rmsd>  (23) 
0.785

$$$$
C700-0425
     RDKit          3D

 70 74  0  0  0  0  0  0  0  0999 V2000
   -2.8381   -2.7296   -1.4823 C   0  0  0  0  0  0  0  0  0  0  0  0
   -2.5931   -3.1744   -2.7824 C   0  0  0  0  0  0  0  0  0  0  0  0
   -1.2869   -3.2451   -3.2665 C   0  0  0  0  0  0  0  0  0  0  0  0
   -0.2121   -2.8868   -2.4490 C   0  0  0  0  0  0  0  0  0  0  0  0
    1.1991   -2.9503   -2.9533 C   0  0  0  0  0  0  0  0  0  0  0  0
   -0.4672   -2.4331   -1.1473 C   0  0  0  0  0  0  0  0  0  0  0  0
   -1.7787   -2.3376   -0.6519 C   0  0  0  0  0  0  0  0  0  0  0  0
   -2.0369   -1.8582    0.7631 C   0  0  0  0  0  0  0  0  0  0  0  0
   -1.5836   -0.4872    1.0063 N   0  0  0  0  0  0  0  0  0  0  0  0
   -0.3159   -0.3162    1.5566 C   0  0  0  0  0  0  0  0  0  0  0  0
    0.3752   -1.2615    1.9349 O   0  0  0  0  0  0  0  0  0  0  0  0
    0.1712    1.1037    1.6585 C   0  0  0  0  0  0  0  0  0  0  0  0
   -0.7312    2.1563    1.5881 O   0  0  0  0  0  0  0  0  0  0  0  0
   -1.9569    1.9148    1.0308 C   0  0  0  0  0  0  0  0  0  0  0  0
   -2.4067    0.6335    0.7027 C   0  0  0  0  0  0  0  0  0  0  0  0
   -2.7470    3.0463    0.7994 C   0  0  0  0  0  0  0  0  0  0  0  0
   -4.0021    2.9131    0.2164 C   0  0  0  0  0  0  0  0  0  0  0  0
   -4.4626    1.6482   -0.1319 C   0  0  0  0  0  0  0  0  0  0  0  0
   -3.6724    0.5180    0.1118 C   0  0  0  0  0  0  0  0  0  0  0  0
    1.4685    1.4216    1.8179 C   0  0  0  0  0  0  0  0  0  0  0  0
    2.6204    0.5179    1.8328 C   0  0  0  0  0  0  0  0  0  0  0  0
    3.3377    0.3299    3.0199 C   0  0  0  0  0  0  0  0  0  0  0  0
    4.4441   -0.5222    3.0429 C   0  0  0  0  0  0  0  0  0  0  0  0
    3.0343   -0.1295    0.6598 C   0  0  0  0  0  0  0  0  0  0  0  0
    4.1390   -0.9831    0.6799 C   0  0  0  0  0  0  0  0  0  0  0  0
    4.8264   -1.1960    1.8778 C   0  0  0  0  0  0  0  0  0  0  0  0
    5.9964   -2.1024    1.8765 C   0  0  0  0  0  0  0  0  0  0  0  0
    6.8909   -1.8860    1.0623 O   0  0  0  0  0  0  0  0  0  0  0  0
    6.0337   -3.1527    2.7889 N   0  0  0  0  0  0  0  0  0  0  0  0
    7.2340   -3.9910    2.8226 C   0  0  0  0  0  0  0  0  0  0  0  0
    7.4074   -4.7175    4.1603 C   0  0  0  0  0  0  0  0  0  0  0  0
    4.8639   -3.6385    3.5408 C   0  0  0  0  0  0  0  0  0  0  0  0
    4.9558   -5.1290    3.8975 C   0  0  0  0  0  0  0  0  0  0  0  0
    6.2114   -5.4580    4.5683 N   0  0  0  0  0  0  0  0  0  0  0  0
    6.2321   -6.4191    5.5575 C   0  0  0  0  0  0  0  0  0  0  0  0
    5.2504   -7.0645    5.9045 O   0  0  0  0  0  0  0  0  0  0  0  0
    7.4696   -6.5619    6.1057 O   0  0  0  0  0  0  0  0  0  0  0  0
    7.5876   -7.5389    7.1496 C   0  0  0  0  0  0  0  0  0  0  0  0
    7.8659   -8.9076    6.5562 C   0  0  0  0  0  0  0  0  0  0  0  0
   -3.8649   -2.6961   -1.1256 H   0  0  0  0  0  0  0  0  0  0  0  0
   -3.4222   -3.4691   -3.4211 H   0  0  0  0  0  0  0  0  0  0  0  0
   -1.1143   -3.5894   -4.2831 H   0  0  0  0  0  0  0  0  0  0  0  0
    1.8403   -3.4579   -2.2249 H   0  0  0  0  0  0  0  0  0  0  0  0
    1.2651   -3.5061   -3.8945 H   0  0  0  0  0  0  0  0  0  0  0  0
    1.5804   -1.9386   -3.1238 H   0  0  0  0  0  0  0  0  0  0  0  0
    0.3727   -2.1621   -0.5093 H   0  0  0  0  0  0  0  0  0  0  0  0
   -1.5238   -2.5493    1.4437 H   0  0  0  0  0  0  0  0  0  0  0  0
   -3.0957   -1.9484    1.0321 H   0  0  0  0  0  0  0  0  0  0  0  0
   -2.3751    4.0315    1.0690 H   0  0  0  0  0  0  0  0  0  0  0  0
   -4.6142    3.7917    0.0299 H   0  0  0  0  0  0  0  0  0  0  0  0
   -5.4391    1.5353   -0.5958 H   0  0  0  0  0  0  0  0  0  0  0  0
   -4.0832   -0.4407   -0.1807 H   0  0  0  0  0  0  0  0  0  0  0  0
    1.7363    2.4722    1.9108 H   0  0  0  0  0  0  0  0  0  0  0  0
    3.0376    0.8404    3.9323 H   0  0  0  0  0  0  0  0  0  0  0  0
    5.0061   -0.6504    3.9639 H   0  0  0  0  0  0  0  0  0  0  0  0
    2.4975    0.0225   -0.2739 H   0  0  0  0  0  0  0  0  0  0  0  0
    4.4600   -1.4822   -0.2314 H   0  0  0  0  0  0  0  0  0  0  0  0
    7.1337   -4.7200    2.0091 H   0  0  0  0  0  0  0  0  0  0  0  0
    8.1199   -3.3825    2.6099 H   0  0  0  0  0  0  0  0  0  0  0  0
    7.6113   -3.9905    4.9558 H   0  0  0  0  0  0  0  0  0  0  0  0
    8.2615   -5.4010    4.1061 H   0  0  0  0  0  0  0  0  0  0  0  0
    3.9485   -3.4523    2.9702 H   0  0  0  0  0  0  0  0  0  0  0  0
    4.8207   -3.0510    4.4651 H   0  0  0  0  0  0  0  0  0  0  0  0
    4.1012   -5.4189    4.5180 H   0  0  0  0  0  0  0  0  0  0  0  0
    4.9207   -5.7344    2.9835 H   0  0  0  0  0  0  0  0  0  0  0  0
    6.6986   -7.5517    7.7901 H   0  0  0  0  0  0  0  0  0  0  0  0
    8.4302   -7.2327    7.7782 H   0  0  0  0  0  0  0  0  0  0  0  0
    8.0267   -9.6473    7.3454 H   0  0  0  0  0  0  0  0  0  0  0  0
    8.7537   -8.8745    5.9163 H   0  0  0  0  0  0  0  0  0  0  0  0
    7.0326   -9.2417    5.9292 H   0  0  0  0  0  0  0  0  0  0  0  0
  1  2  2  0
  2  3  1  0
  3  4  2  0
  4  5  1  0
  4  6  1  0
  6  7  2  0
  7  8  1  0
  8  9  1  0
  9 10  1  0
 10 11  2  0
 10 12  1  0
 12 13  1  0
 13 14  1  0
 14 15  2  0
 14 16  1  0
 16 17  2  0
 17 18  1  0
 18 19  2  0
 12 20  2  0
 20 21  1  0
 21 22  2  0
 22 23  1  0
 21 24  1  0
 24 25  2  0
 25 26  1  0
 26 27  1  0
 27 28  2  0
 27 29  1  0
 29 30  1  0
 30 31  1  0
 29 32  1  0
 32 33  1  0
 33 34  1  0
 34 35  1  0
 35 36  2  0
 35 37  1  0
 37 38  1  0
 38 39  1  0
  7  1  1  0
 15  9  1  0
 19 15  1  0
 26 23  2  0
 34 31  1  0
  1 40  1  0
  2 41  1  0
  3 42  1  0
  5 43  1  0
  5 44  1  0
  5 45  1  0
  6 46  1  0
  8 47  1  0
  8 48  1  0
 16 49  1  0
 17 50  1  0
 18 51  1  0
 19 52  1  0
 20 53  1  0
 22 54  1  0
 23 55  1  0
 24 56  1  0
 25 57  1  0
 30 58  1  0
 30 59  1  0
 31 60  1  0
 31 61  1  0
 32 62  1  0
 32 63  1  0
 33 64  1  0
 33 65  1  0
 38 66  1  0
 38 67  1  0
 39 68  1  0
 39 69  1  0
 39 70  1  0
M  END
>  <mol_id>  (24) 
C700-0425

>  <drugclip_rank>  (24) 
24

>  <conformer>  (24) 
14

>  <align_rmsd>  (24) 
0.737

$$$$
K783-4298
     RDKit          3D

 74 77  0  0  0  0  0  0  0  0999 V2000
   -6.8458    1.4809   -0.5574 C   0  0  0  0  0  0  0  0  0  0  0  0
   -8.0320    1.1565    0.1026 C   0  0  0  0  0  0  0  0  0  0  0  0
   -8.3990   -0.1842    0.2888 C   0  0  0  0  0  0  0  0  0  0  0  0
   -9.6896   -0.5293    0.9728 C   0  0  0  0  0  0  0  0  0  0  0  0
   -7.5778   -1.2004   -0.2210 C   0  0  0  0  0  0  0  0  0  0  0  0
   -6.3907   -0.8832   -0.8828 C   0  0  0  0  0  0  0  0  0  0  0  0
   -6.0264    0.4566   -1.0368 C   0  0  0  0  0  0  0  0  0  0  0  0
   -4.5042    0.8447   -1.8650 S   0  0  0  0  0  0  0  0  0  0  0  0
   -4.4478    0.0367   -3.0650 O   0  0  0  0  0  0  0  0  0  0  0  0
   -4.3672    2.2865   -1.9247 O   0  0  0  0  0  0  0  0  0  0  0  0
   -3.3215    0.2725   -0.7702 N   0  0  0  0  0  0  0  0  0  0  0  0
   -3.3797    0.8557    0.5987 C   0  0  0  0  0  0  0  0  0  0  0  0
   -2.1224    0.5122    1.3849 C   0  0  0  0  0  0  0  0  0  0  0  0
   -0.8747    1.1223    0.7282 C   0  0  0  0  0  0  0  0  0  0  0  0
   -1.0367    1.2624   -0.7930 C   0  0  0  0  0  0  0  0  0  0  0  0
   -1.9492    0.1717   -1.3462 C   0  0  0  0  0  0  0  0  0  0  0  0
    0.3727    0.2919    1.0253 C   0  0  0  0  0  0  0  0  0  0  0  0
    0.3291   -0.9308    1.1016 O   0  0  0  0  0  0  0  0  0  0  0  0
    1.5056    1.0681    1.1419 N   0  0  0  0  0  0  0  0  0  0  0  0
    2.8420    0.6490    1.3212 C   0  0  0  0  0  0  0  0  0  0  0  0
    3.7742    1.6807    1.6024 C   0  0  0  0  0  0  0  0  0  0  0  0
    3.2611    2.9870    1.8143 N   0  0  0  0  0  0  0  0  0  0  0  0
    4.1503    4.1485    1.6432 C   0  0  0  0  0  0  0  0  0  0  0  0
    3.3883    5.4095    2.0753 C   0  0  0  0  0  0  0  0  0  0  0  0
    4.2703    6.6593    2.0114 C   0  0  0  0  0  0  0  0  0  0  0  0
    5.3605    6.5788    0.9443 C   0  0  0  0  0  0  0  0  0  0  0  0
    4.9215    5.7259   -0.2393 C   0  0  0  0  0  0  0  0  0  0  0  0
    4.6108    4.2834    0.1780 C   0  0  0  0  0  0  0  0  0  0  0  0
    5.1118    1.3316    1.8102 C   0  0  0  0  0  0  0  0  0  0  0  0
    5.5341    0.0043    1.6774 C   0  0  0  0  0  0  0  0  0  0  0  0
    4.6152   -1.0042    1.3630 C   0  0  0  0  0  0  0  0  0  0  0  0
    3.2627   -0.6777    1.1996 C   0  0  0  0  0  0  0  0  0  0  0  0
    5.0250   -2.4256    1.1841 C   0  0  0  0  0  0  0  0  0  0  0  0
    4.2507   -3.3225    0.8881 O   0  0  0  0  0  0  0  0  0  0  0  0
    6.3623   -2.5628    1.3771 O   0  0  0  0  0  0  0  0  0  0  0  0
    6.8766   -3.8922    1.2121 C   0  0  0  0  0  0  0  0  0  0  0  0
    7.1914   -4.1572   -0.2488 C   0  0  0  0  0  0  0  0  0  0  0  0
   -6.5711    2.5247   -0.6942 H   0  0  0  0  0  0  0  0  0  0  0  0
   -8.6729    1.9554    0.4697 H   0  0  0  0  0  0  0  0  0  0  0  0
  -10.4747   -0.6985    0.2283 H   0  0  0  0  0  0  0  0  0  0  0  0
   -9.5767   -1.4326    1.5829 H   0  0  0  0  0  0  0  0  0  0  0  0
  -10.0064    0.2784    1.6417 H   0  0  0  0  0  0  0  0  0  0  0  0
   -7.8618   -2.2452   -0.1070 H   0  0  0  0  0  0  0  0  0  0  0  0
   -5.7550   -1.6758   -1.2749 H   0  0  0  0  0  0  0  0  0  0  0  0
   -4.2441    0.4400    1.1295 H   0  0  0  0  0  0  0  0  0  0  0  0
   -3.4991    1.9450    0.5525 H   0  0  0  0  0  0  0  0  0  0  0  0
   -2.0460   -0.5794    1.4780 H   0  0  0  0  0  0  0  0  0  0  0  0
   -2.2101    0.8994    2.4098 H   0  0  0  0  0  0  0  0  0  0  0  0
   -0.7289    2.1266    1.1484 H   0  0  0  0  0  0  0  0  0  0  0  0
   -1.4741    2.2427   -1.0181 H   0  0  0  0  0  0  0  0  0  0  0  0
   -0.0673    1.2294   -1.3016 H   0  0  0  0  0  0  0  0  0  0  0  0
   -1.5556   -0.8239   -1.1064 H   0  0  0  0  0  0  0  0  0  0  0  0
   -1.9723    0.2325   -2.4400 H   0  0  0  0  0  0  0  0  0  0  0  0
    1.4188    2.0848    1.1287 H   0  0  0  0  0  0  0  0  0  0  0  0
    2.8810    2.9864    2.7651 H   0  0  0  0  0  0  0  0  0  0  0  0
    5.0199    4.0568    2.3055 H   0  0  0  0  0  0  0  0  0  0  0  0
    2.5142    5.5478    1.4228 H   0  0  0  0  0  0  0  0  0  0  0  0
    2.9887    5.2971    3.0921 H   0  0  0  0  0  0  0  0  0  0  0  0
    4.7420    6.8317    2.9873 H   0  0  0  0  0  0  0  0  0  0  0  0
    3.6305    7.5307    1.8237 H   0  0  0  0  0  0  0  0  0  0  0  0
    6.2701    6.1462    1.3811 H   0  0  0  0  0  0  0  0  0  0  0  0
    5.6269    7.5872    0.6091 H   0  0  0  0  0  0  0  0  0  0  0  0
    4.0269    6.1726   -0.6935 H   0  0  0  0  0  0  0  0  0  0  0  0
    5.6972    5.7242   -1.0140 H   0  0  0  0  0  0  0  0  0  0  0  0
    3.8627    3.8752   -0.5155 H   0  0  0  0  0  0  0  0  0  0  0  0
    5.5137    3.6745    0.0355 H   0  0  0  0  0  0  0  0  0  0  0  0
    5.8553    2.0726    2.0855 H   0  0  0  0  0  0  0  0  0  0  0  0
    6.5861   -0.2267    1.8281 H   0  0  0  0  0  0  0  0  0  0  0  0
    2.5586   -1.4687    0.9545 H   0  0  0  0  0  0  0  0  0  0  0  0
    7.7967   -3.9548    1.8041 H   0  0  0  0  0  0  0  0  0  0  0  0
    6.1830   -4.6402    1.6134 H   0  0  0  0  0  0  0  0  0  0  0  0
    6.2932   -4.0681   -0.8684 H   0  0  0  0  0  0  0  0  0  0  0  0
    7.6056   -5.1603   -0.3808 H   0  0  0  0  0  0  0  0  0  0  0  0
    7.9121   -3.4251   -0.6293 H   0  0  0  0  0  0  0  0  0  0  0  0
  1  2  2  0
  2  3  1  0
  3  4  1  0
  3  5  2  0
  5  6  1  0
  6  7  2  0
  7  8  1  0
  8  9  2  0
  8 10  2  0
  8 11  1  0
 11 12  1  0
 12 13  1  0
 13 14  1  0
 14 15  1  0
 15 16  1  0
 14 17  1  0
 17 18  2  0
 17 19  1  0
 19 20  1  0
 20 21  1  0
 21 22  1  0
 22 23  1  0
 23 24  1  0
 24 25  1  0
 25 26  1  0
 26 27  1  0
 27 28  1  0
 21 29  2  0
 29 30  1  0
 30 31  2  0
 31 32  1  0
 31 33  1  0
 33 34  2  0
 33 35  1  0
 35 36  1  0
 36 37  1  0
  7  1  1  0
 16 11  1  0
 32 20  2  0
 28 23  1  0
  1 38  1  0
  2 39  1  0
  4 40  1  0
  4 41  1  0
  4 42  1  0
  5 43  1  0
  6 44  1  0
 12 45  1  0
 12 46  1  0
 13 47  1  0
 13 48  1  0
 14 49  1  0
 15 50  1  0
 15 51  1  0
 16 52  1  0
 16 53  1  0
 19 54  1  0
 22 55  1  0
 23 56  1  0
 24 57  1  0
 24 58  1  0
 25 59  1  0
 25 60  1  0
 26 61  1  0
 26 62  1  0
 27 63  1  0
 27 64  1  0
 28 65  1  0
 28 66  1  0
 29 67  1  0
 30 68  1  0
 32 69  1  0
 36 70  1  0
 36 71  1  0
 37 72  1  0
 37 73  1  0
 37 74  1  0
M  END
>  <mol_id>  (25) 
K783-4298

>  <drugclip_rank>  (25) 
25

>  <conformer>  (25) 
32

>  <align_rmsd>  (25) 
0.819

$$$$
Z16435552
     RDKit          3D

 69 72  0  0  0  0  0  0  0  0999 V2000
   -6.3836   -1.7225   -4.1089 C   0  0  0  0  0  0  0  0  0  0  0  0
   -7.0816   -1.5450   -2.7704 C   0  0  0  0  0  0  0  0  0  0  0  0
   -6.1424   -1.6971   -1.5650 C   0  0  0  0  0  0  0  0  0  0  0  0
   -5.0551   -0.6249   -1.4651 C   0  0  0  0  0  0  0  0  0  0  0  0
   -5.6553    0.7032   -1.4069 N   0  0  0  0  0  0  0  0  0  0  0  0
   -4.8552    2.0504   -1.9926 S   0  0  0  0  0  0  0  0  0  0  0  0
   -5.7852    3.1540   -1.8422 O   0  0  0  0  0  0  0  0  0  0  0  0
   -4.2482    1.7089   -3.2593 O   0  0  0  0  0  0  0  0  0  0  0  0
   -3.5434    2.2791   -0.8038 C   0  0  0  0  0  0  0  0  0  0  0  0
   -2.4319    1.4204   -0.8271 C   0  0  0  0  0  0  0  0  0  0  0  0
   -1.3986    1.5687    0.1105 C   0  0  0  0  0  0  0  0  0  0  0  0
   -3.6320    3.3402    0.1101 C   0  0  0  0  0  0  0  0  0  0  0  0
   -2.5689    3.4738    1.0039 C   0  0  0  0  0  0  0  0  0  0  0  0
   -1.4773    2.6115    1.0484 C   0  0  0  0  0  0  0  0  0  0  0  0
   -2.3076    4.3978    1.9822 N   0  0  0  0  0  0  0  0  0  0  0  0
   -1.1177    4.0702    2.5536 C   0  0  0  0  0  0  0  0  0  0  0  0
   -0.5980    2.9755    2.0473 N   0  0  0  0  0  0  0  0  0  0  0  0
   -0.4406    5.1121    3.7397 S   0  0  0  0  0  0  0  0  0  0  0  0
    1.2798    4.5395    3.7497 C   0  0  0  0  0  0  0  0  0  0  0  0
    1.9563    4.7672    2.4023 C   0  0  0  0  0  0  0  0  0  0  0  0
    2.0836    5.8947    1.9248 O   0  0  0  0  0  0  0  0  0  0  0  0
    2.4252    3.5850    1.8373 N   0  0  0  0  0  0  0  0  0  0  0  0
    3.1972    3.5374    0.6819 C   0  0  0  0  0  0  0  0  0  0  0  0
    3.6524    4.5540   -0.1300 C   0  0  0  0  0  0  0  0  0  0  0  0
    4.2231    3.9275   -1.2611 C   0  0  0  0  0  0  0  0  0  0  0  0
    4.8212    4.5699   -2.5045 C   0  0  0  0  0  0  0  0  0  0  0  0
    6.0698    3.7940   -2.9775 C   0  0  0  0  0  0  0  0  0  0  0  0
    5.2547    6.0275   -2.2383 C   0  0  0  0  0  0  0  0  0  0  0  0
    3.7776    4.5700   -3.6367 C   0  0  0  0  0  0  0  0  0  0  0  0
    4.1241    2.5927   -1.1666 N   0  0  0  0  0  0  0  0  0  0  0  0
    3.6553    2.3576    0.0883 N   0  0  0  0  0  0  0  0  0  0  0  0
    3.7348    1.0391    0.6323 C   0  0  0  0  0  0  0  0  0  0  0  0
    3.8669   -0.0537   -0.2369 C   0  0  0  0  0  0  0  0  0  0  0  0
    3.9726   -1.3474    0.2777 C   0  0  0  0  0  0  0  0  0  0  0  0
    3.9604   -1.5647    1.6514 C   0  0  0  0  0  0  0  0  0  0  0  0
    3.8565   -0.4827    2.5238 C   0  0  0  0  0  0  0  0  0  0  0  0
    3.7501    0.8164    2.0148 C   0  0  0  0  0  0  0  0  0  0  0  0
   -5.5899   -0.9872   -4.2582 H   0  0  0  0  0  0  0  0  0  0  0  0
   -5.9451   -2.7250   -4.1826 H   0  0  0  0  0  0  0  0  0  0  0  0
   -7.0995   -1.6050   -4.9281 H   0  0  0  0  0  0  0  0  0  0  0  0
   -7.8649   -2.3013   -2.6924 H   0  0  0  0  0  0  0  0  0  0  0  0
   -7.5879   -0.5723   -2.7392 H   0  0  0  0  0  0  0  0  0  0  0  0
   -6.7461   -1.6789   -0.6465 H   0  0  0  0  0  0  0  0  0  0  0  0
   -5.6555   -2.6802   -1.6069 H   0  0  0  0  0  0  0  0  0  0  0  0
   -4.4736   -0.7982   -0.5486 H   0  0  0  0  0  0  0  0  0  0  0  0
   -4.3667   -0.7101   -2.3155 H   0  0  0  0  0  0  0  0  0  0  0  0
   -6.4555    0.8922   -0.8064 H   0  0  0  0  0  0  0  0  0  0  0  0
   -2.3581    0.6377   -1.5818 H   0  0  0  0  0  0  0  0  0  0  0  0
   -0.5432    0.9021    0.1149 H   0  0  0  0  0  0  0  0  0  0  0  0
   -4.4672    4.0286    0.1217 H   0  0  0  0  0  0  0  0  0  0  0  0
   -2.8600    5.2170    2.2130 H   0  0  0  0  0  0  0  0  0  0  0  0
    1.3177    3.4838    4.0570 H   0  0  0  0  0  0  0  0  0  0  0  0
    1.8419    5.1078    4.4996 H   0  0  0  0  0  0  0  0  0  0  0  0
    1.9954    2.7196    2.1504 H   0  0  0  0  0  0  0  0  0  0  0  0
    3.5216    5.6157    0.0274 H   0  0  0  0  0  0  0  0  0  0  0  0
    5.8225    2.7722   -3.2951 H   0  0  0  0  0  0  0  0  0  0  0  0
    6.5408    4.2952   -3.8321 H   0  0  0  0  0  0  0  0  0  0  0  0
    6.8171    3.7190   -2.1771 H   0  0  0  0  0  0  0  0  0  0  0  0
    5.7403    6.4656   -3.1209 H   0  0  0  0  0  0  0  0  0  0  0  0
    5.9674    6.0897   -1.4075 H   0  0  0  0  0  0  0  0  0  0  0  0
    4.3989    6.6652   -1.9890 H   0  0  0  0  0  0  0  0  0  0  0  0
    2.8882    5.1493   -3.3518 H   0  0  0  0  0  0  0  0  0  0  0  0
    3.4383    3.5535   -3.8627 H   0  0  0  0  0  0  0  0  0  0  0  0
    4.1885    4.9978   -4.5587 H   0  0  0  0  0  0  0  0  0  0  0  0
    3.8885    0.0890   -1.3174 H   0  0  0  0  0  0  0  0  0  0  0  0
    4.0662   -2.1910   -0.4009 H   0  0  0  0  0  0  0  0  0  0  0  0
    4.0460   -2.5757    2.0435 H   0  0  0  0  0  0  0  0  0  0  0  0
    3.8725   -0.6473    3.6006 H   0  0  0  0  0  0  0  0  0  0  0  0
    3.7488    1.6399    2.7264 H   0  0  0  0  0  0  0  0  0  0  0  0
  1  2  1  0
  2  3  1  0
  3  4  1  0
  4  5  1  0
  5  6  1  0
  6  7  2  0
  6  8  2  0
  6  9  1  0
  9 10  2  0
 10 11  1  0
  9 12  1  0
 12 13  2  0
 13 14  1  0
 13 15  1  0
 15 16  1  0
 16 17  2  0
 16 18  1  0
 18 19  1  0
 19 20  1  0
 20 21  2  0
 20 22  1  0
 22 23  1  0
 23 24  2  0
 24 25  1  0
 25 26  1  0
 26 27  1  0
 26 28  1  0
 26 29  1  0
 25 30  2  0
 30 31  1  0
 31 32  1  0
 32 33  2  0
 33 34  1  0
 34 35  2  0
 35 36  1  0
 36 37  2  0
 14 11  2  0
 17 14  1  0
 31 23  1  0
 37 32  1  0
  1 38  1  0
  1 39  1  0
  1 40  1  0
  2 41  1  0
  2 42  1  0
  3 43  1  0
  3 44  1  0
  4 45  1  0
  4 46  1  0
  5 47  1  0
 10 48  1  0
 11 49  1  0
 12 50  1  0
 15 51  1  0
 19 52  1  0
 19 53  1  0
 22 54  1  0
 24 55  1  0
 27 56  1  0
 27 57  1  0
 27 58  1  0
 28 59  1  0
 28 60  1  0
 28 61  1  0
 29 62  1  0
 29 63  1  0
 29 64  1  0
 33 65  1  0
 34 66  1  0
 35 67  1  0
 36 68  1  0
 37 69  1  0
M  END
>  <mol_id>  (26) 
Z16435552

>  <drugclip_rank>  (26) 
26

>  <conformer>  (26) 
6

>  <align_rmsd>  (26) 
1.408

$$$$
V027-4235
     RDKit          3D

 73 77  0  0  0  0  0  0  0  0999 V2000
   -2.1450    0.6753    1.2716 C   0  0  0  0  0  0  0  0  0  0  0  0
   -2.9038    0.9989    0.1487 C   0  0  0  0  0  0  0  0  0  0  0  0
   -2.5761    0.4585   -1.0910 C   0  0  0  0  0  0  0  0  0  0  0  0
   -1.4886   -0.4185   -1.2276 C   0  0  0  0  0  0  0  0  0  0  0  0
   -1.1861   -0.9887   -2.5886 C   0  0  0  0  0  0  0  0  0  0  0  0
   -0.7292   -0.7737   -0.0873 C   0  0  0  0  0  0  0  0  0  0  0  0
    0.4398   -1.7156   -0.2165 C   0  0  0  0  0  0  0  0  0  0  0  0
   -1.0493   -0.1899    1.1551 C   0  0  0  0  0  0  0  0  0  0  0  0
   -0.2881   -0.5529    2.2516 O   0  0  0  0  0  0  0  0  0  0  0  0
   -0.0790    0.3928    3.2372 C   0  0  0  0  0  0  0  0  0  0  0  0
   -0.7207    0.1666    4.5333 C   0  0  0  0  0  0  0  0  0  0  0  0
   -0.6590    0.9402    5.5617 N   0  0  0  0  0  0  0  0  0  0  0  0
    0.0894    2.0976    5.4523 N   0  0  0  0  0  0  0  0  0  0  0  0
    0.1199    2.8792    6.6637 C   0  0  0  0  0  0  0  0  0  0  0  0
    1.0072    3.9471    6.8581 C   0  0  0  0  0  0  0  0  0  0  0  0
    1.0277    4.6723    8.0586 C   0  0  0  0  0  0  0  0  0  0  0  0
    0.1491    4.3541    9.0876 C   0  0  0  0  0  0  0  0  0  0  0  0
   -0.7459    3.3062    8.9201 C   0  0  0  0  0  0  0  0  0  0  0  0
   -0.7493    2.5709    7.7280 C   0  0  0  0  0  0  0  0  0  0  0  0
    0.7467    2.4607    4.2712 C   0  0  0  0  0  0  0  0  0  0  0  0
    1.3508    3.5157    4.0525 O   0  0  0  0  0  0  0  0  0  0  0  0
    0.7061    1.4750    3.1215 C   0  0  0  0  0  0  0  0  0  0  0  0
    1.4407    1.8646    1.9980 N   0  0  0  0  0  0  0  0  0  0  0  0
    2.5045    1.1370    1.4106 C   0  0  0  0  0  0  0  0  0  0  0  0
    2.9853   -0.0824    1.9016 C   0  0  0  0  0  0  0  0  0  0  0  0
    4.0435   -0.7435    1.2659 C   0  0  0  0  0  0  0  0  0  0  0  0
    3.0964    1.6666    0.2533 C   0  0  0  0  0  0  0  0  0  0  0  0
    4.1541    1.0108   -0.3874 C   0  0  0  0  0  0  0  0  0  0  0  0
    4.6302   -0.2043    0.1156 C   0  0  0  0  0  0  0  0  0  0  0  0
    5.7799   -0.9247   -0.5036 C   0  0  0  0  0  0  0  0  0  0  0  0
    6.4229   -1.7393    0.1506 O   0  0  0  0  0  0  0  0  0  0  0  0
    6.0461   -0.6362   -1.8274 N   0  0  0  0  0  0  0  0  0  0  0  0
    7.0719   -1.3669   -2.5522 C   0  0  0  0  0  0  0  0  0  0  0  0
    6.5387   -2.6824   -3.1491 C   0  0  0  0  0  0  0  0  0  0  0  0
    5.3937   -2.4990   -4.0709 N   0  0  0  0  0  0  0  0  0  0  0  0
    4.8178   -3.8074   -4.4678 C   0  0  0  0  0  0  0  0  0  0  0  0
    5.2946   -4.2973   -5.8464 C   0  0  0  0  0  0  0  0  0  0  0  0
    4.9596   -3.3919   -6.9057 O   0  0  0  0  0  0  0  0  0  0  0  0
    4.8669   -2.0274   -6.4739 C   0  0  0  0  0  0  0  0  0  0  0  0
    5.7785   -1.7247   -5.2752 C   0  0  0  0  0  0  0  0  0  0  0  0
   -2.4348    1.1005    2.2274 H   0  0  0  0  0  0  0  0  0  0  0  0
   -3.7524    1.6718    0.2406 H   0  0  0  0  0  0  0  0  0  0  0  0
   -3.1807    0.7260   -1.9566 H   0  0  0  0  0  0  0  0  0  0  0  0
   -0.1223   -0.8820   -2.8257 H   0  0  0  0  0  0  0  0  0  0  0  0
   -1.7419   -0.4664   -3.3749 H   0  0  0  0  0  0  0  0  0  0  0  0
   -1.4640   -2.0474   -2.6249 H   0  0  0  0  0  0  0  0  0  0  0  0
    0.7561   -2.1269    0.7467 H   0  0  0  0  0  0  0  0  0  0  0  0
    1.2898   -1.1932   -0.6613 H   0  0  0  0  0  0  0  0  0  0  0  0
    0.1766   -2.5748   -0.8399 H   0  0  0  0  0  0  0  0  0  0  0  0
   -1.3101   -0.7623    4.6109 H   0  0  0  0  0  0  0  0  0  0  0  0
    1.7323    4.2357    6.1052 H   0  0  0  0  0  0  0  0  0  0  0  0
    1.7430    5.4791    8.1821 H   0  0  0  0  0  0  0  0  0  0  0  0
    0.1612    4.9255   10.0114 H   0  0  0  0  0  0  0  0  0  0  0  0
   -1.4471    3.0580    9.7098 H   0  0  0  0  0  0  0  0  0  0  0  0
   -1.4604    1.7530    7.6377 H   0  0  0  0  0  0  0  0  0  0  0  0
    1.7298    2.8446    2.1103 H   0  0  0  0  0  0  0  0  0  0  0  0
    2.5666   -0.5337    2.7965 H   0  0  0  0  0  0  0  0  0  0  0  0
    4.4148   -1.6800    1.6796 H   0  0  0  0  0  0  0  0  0  0  0  0
    2.7326    2.6080   -0.1545 H   0  0  0  0  0  0  0  0  0  0  0  0
    4.6080    1.4793   -1.2551 H   0  0  0  0  0  0  0  0  0  0  0  0
    5.2813   -0.2861   -2.3887 H   0  0  0  0  0  0  0  0  0  0  0  0
    7.4502   -0.7023   -3.3354 H   0  0  0  0  0  0  0  0  0  0  0  0
    7.9037   -1.5872   -1.8747 H   0  0  0  0  0  0  0  0  0  0  0  0
    6.2137   -3.3138   -2.3130 H   0  0  0  0  0  0  0  0  0  0  0  0
    7.3590   -3.2111   -3.6502 H   0  0  0  0  0  0  0  0  0  0  0  0
    5.0038   -4.5767   -3.7118 H   0  0  0  0  0  0  0  0  0  0  0  0
    3.7293   -3.6749   -4.5099 H   0  0  0  0  0  0  0  0  0  0  0  0
    6.3808   -4.4449   -5.8562 H   0  0  0  0  0  0  0  0  0  0  0  0
    4.8340   -5.2634   -6.0817 H   0  0  0  0  0  0  0  0  0  0  0  0
    5.1375   -1.3942   -7.3251 H   0  0  0  0  0  0  0  0  0  0  0  0
    3.8191   -1.8140   -6.2329 H   0  0  0  0  0  0  0  0  0  0  0  0
    6.8088   -1.9629   -5.5688 H   0  0  0  0  0  0  0  0  0  0  0  0
    5.7265   -0.6551   -5.0454 H   0  0  0  0  0  0  0  0  0  0  0  0
  1  2  2  0
  2  3  1  0
  3  4  2  0
  4  5  1  0
  4  6  1  0
  6  7  1  0
  6  8  2  0
  8  9  1  0
  9 10  1  0
 10 11  1  0
 11 12  2  0
 12 13  1  0
 13 14  1  0
 14 15  2  0
 15 16  1  0
 16 17  2  0
 17 18  1  0
 18 19  2  0
 13 20  1  0
 20 21  2  0
 20 22  1  0
 22 23  1  0
 23 24  1  0
 24 25  2  0
 25 26  1  0
 24 27  1  0
 27 28  2  0
 28 29  1  0
 29 30  1  0
 30 31  2  0
 30 32  1  0
 32 33  1  0
 33 34  1  0
 34 35  1  0
 35 36  1  0
 36 37  1  0
 37 38  1  0
 38 39  1  0
 39 40  1  0
  8  1  1  0
 22 10  2  0
 19 14  1  0
 29 26  2  0
 40 35  1  0
  1 41  1  0
  2 42  1  0
  3 43  1  0
  5 44  1  0
  5 45  1  0
  5 46  1  0
  7 47  1  0
  7 48  1  0
  7 49  1  0
 11 50  1  0
 15 51  1  0
 16 52  1  0
 17 53  1  0
 18 54  1  0
 19 55  1  0
 23 56  1  0
 25 57  1  0
 26 58  1  0
 27 59  1  0
 28 60  1  0
 32 61  1  0
 33 62  1  0
 33 63  1  0
 34 64  1  0
 34 65  1  0
 36 66  1  0
 36 67  1  0
 37 68  1  0
 37 69  1  0
 39 70  1  0
 39 71  1  0
 40 72  1  0
 40 73  1  0
M  END
>  <mol_id>  (27) 
V027-4235

>  <drugclip_rank>  (27) 
27

>  <conformer>  (27) 
17

>  <align_rmsd>  (27) 
1.114

$$$$
Z26543951
     RDKit          3D

 73 76  0  0  0  0  0  0  0  0999 V2000
    4.1401   -1.1848    5.2222 C   0  0  0  0  0  0  0  0  0  0  0  0
    4.1076   -2.3571    4.2557 C   0  0  0  0  0  0  0  0  0  0  0  0
    5.3647   -2.3707    3.4653 N   0  0  0  0  0  0  0  0  0  0  0  0
    6.4099   -3.2796    4.0032 C   0  0  0  0  0  0  0  0  0  0  0  0
    6.1919   -4.7361    3.6280 C   0  0  0  0  0  0  0  0  0  0  0  0
    5.2205   -2.3100    1.7702 S   0  0  0  0  0  0  0  0  0  0  0  0
    4.2404   -3.2943    1.3634 O   0  0  0  0  0  0  0  0  0  0  0  0
    6.5537   -2.3146    1.2036 O   0  0  0  0  0  0  0  0  0  0  0  0
    4.5417   -0.6892    1.4980 C   0  0  0  0  0  0  0  0  0  0  0  0
    5.4039    0.3938    1.3469 C   0  0  0  0  0  0  0  0  0  0  0  0
    4.8734    1.6548    1.0771 C   0  0  0  0  0  0  0  0  0  0  0  0
    3.4867    1.8572    0.9583 C   0  0  0  0  0  0  0  0  0  0  0  0
    3.0725    3.1680    0.6829 N   0  0  0  0  0  0  0  0  0  0  0  0
    2.6271    3.4318   -0.6887 C   0  0  0  0  0  0  0  0  0  0  0  0
    2.7048    4.9330   -0.9656 C   0  0  0  0  0  0  0  0  0  0  0  0
    1.9560    5.7346    0.0979 C   0  0  0  0  0  0  0  0  0  0  0  0
    2.4640    5.3869    1.4969 C   0  0  0  0  0  0  0  0  0  0  0  0
    2.3825    3.8826    1.7600 C   0  0  0  0  0  0  0  0  0  0  0  0
    2.6229    0.7450    1.1235 C   0  0  0  0  0  0  0  0  0  0  0  0
    3.1597   -0.5236    1.3698 C   0  0  0  0  0  0  0  0  0  0  0  0
    1.2329    0.9507    0.9930 N   0  0  0  0  0  0  0  0  0  0  0  0
    0.2096    0.0842    1.3150 C   0  0  0  0  0  0  0  0  0  0  0  0
    0.3119   -0.9833    1.9062 O   0  0  0  0  0  0  0  0  0  0  0  0
   -1.1504    0.5662    0.9399 C   0  0  0  0  0  0  0  0  0  0  0  0
   -2.2431    0.2082    1.7396 C   0  0  0  0  0  0  0  0  0  0  0  0
   -3.5252    0.6693    1.4294 C   0  0  0  0  0  0  0  0  0  0  0  0
   -3.7260    1.4755    0.3087 C   0  0  0  0  0  0  0  0  0  0  0  0
   -2.6422    1.7917   -0.5157 C   0  0  0  0  0  0  0  0  0  0  0  0
   -1.3527    1.3517   -0.2000 C   0  0  0  0  0  0  0  0  0  0  0  0
   -2.8712    2.8597   -1.9238 S   0  0  0  0  0  0  0  0  0  0  0  0
   -4.0761    3.6257   -1.6891 O   0  0  0  0  0  0  0  0  0  0  0  0
   -1.5995    3.5129   -2.1588 O   0  0  0  0  0  0  0  0  0  0  0  0
   -3.1607    1.7963   -3.1902 N   0  0  0  0  0  0  0  0  0  0  0  0
   -2.0725    0.9464   -3.7147 C   0  0  0  0  0  0  0  0  0  0  0  0
   -2.7119   -0.4237   -3.9009 C   0  0  0  0  0  0  0  0  0  0  0  0
   -4.1588   -0.0861   -4.2076 C   0  0  0  0  0  0  0  0  0  0  0  0
   -4.4394    1.0604   -3.2452 C   0  0  0  0  0  0  0  0  0  0  0  0
    4.2943   -0.2390    4.6940 H   0  0  0  0  0  0  0  0  0  0  0  0
    4.9517   -1.2980    5.9478 H   0  0  0  0  0  0  0  0  0  0  0  0
    3.1977   -1.1199    5.7743 H   0  0  0  0  0  0  0  0  0  0  0  0
    3.2277   -2.2667    3.6136 H   0  0  0  0  0  0  0  0  0  0  0  0
    3.9844   -3.2930    4.8113 H   0  0  0  0  0  0  0  0  0  0  0  0
    6.4349   -3.1870    5.0956 H   0  0  0  0  0  0  0  0  0  0  0  0
    7.3921   -2.9421    3.6535 H   0  0  0  0  0  0  0  0  0  0  0  0
    6.9375   -5.3650    4.1250 H   0  0  0  0  0  0  0  0  0  0  0  0
    6.2950   -4.8955    2.5507 H   0  0  0  0  0  0  0  0  0  0  0  0
    5.1993   -5.0888    3.9253 H   0  0  0  0  0  0  0  0  0  0  0  0
    6.4805    0.2655    1.4273 H   0  0  0  0  0  0  0  0  0  0  0  0
    5.5460    2.5010    0.9519 H   0  0  0  0  0  0  0  0  0  0  0  0
    1.5990    3.0870   -0.8439 H   0  0  0  0  0  0  0  0  0  0  0  0
    3.2641    2.9076   -1.4119 H   0  0  0  0  0  0  0  0  0  0  0  0
    3.7560    5.2480   -0.9790 H   0  0  0  0  0  0  0  0  0  0  0  0
    2.2911    5.1492   -1.9566 H   0  0  0  0  0  0  0  0  0  0  0  0
    2.0833    6.8066   -0.0879 H   0  0  0  0  0  0  0  0  0  0  0  0
    0.8825    5.5197    0.0321 H   0  0  0  0  0  0  0  0  0  0  0  0
    3.5055    5.7194    1.5945 H   0  0  0  0  0  0  0  0  0  0  0  0
    1.8805    5.9278    2.2499 H   0  0  0  0  0  0  0  0  0  0  0  0
    1.3302    3.5851    1.8264 H   0  0  0  0  0  0  0  0  0  0  0  0
    2.8488    3.6690    2.7299 H   0  0  0  0  0  0  0  0  0  0  0  0
    2.5192   -1.3970    1.4475 H   0  0  0  0  0  0  0  0  0  0  0  0
    0.9868    1.8925    0.7291 H   0  0  0  0  0  0  0  0  0  0  0  0
   -2.0939   -0.4183    2.6180 H   0  0  0  0  0  0  0  0  0  0  0  0
   -4.3648    0.4055    2.0691 H   0  0  0  0  0  0  0  0  0  0  0  0
   -4.7236    1.8501    0.0869 H   0  0  0  0  0  0  0  0  0  0  0  0
   -0.5213    1.6116   -0.8502 H   0  0  0  0  0  0  0  0  0  0  0  0
   -1.2042    0.8856   -3.0557 H   0  0  0  0  0  0  0  0  0  0  0  0
   -1.7477    1.3577   -4.6771 H   0  0  0  0  0  0  0  0  0  0  0  0
   -2.2328   -1.0048   -4.6940 H   0  0  0  0  0  0  0  0  0  0  0  0
   -2.6495   -0.9971   -2.9678 H   0  0  0  0  0  0  0  0  0  0  0  0
   -4.8342   -0.9336   -4.0580 H   0  0  0  0  0  0  0  0  0  0  0  0
   -4.2556    0.2549   -5.2456 H   0  0  0  0  0  0  0  0  0  0  0  0
   -5.2460    1.7003   -3.6129 H   0  0  0  0  0  0  0  0  0  0  0  0
   -4.7091    0.6623   -2.2635 H   0  0  0  0  0  0  0  0  0  0  0  0
  1  2  1  0
  2  3  1  0
  3  4  1  0
  4  5  1  0
  3  6  1  0
  6  7  2  0
  6  8  2  0
  6  9  1  0
  9 10  2  0
 10 11  1  0
 11 12  2  0
 12 13  1  0
 13 14  1  0
 14 15  1  0
 15 16  1  0
 16 17  1  0
 17 18  1  0
 12 19  1  0
 19 20  2  0
 19 21  1  0
 21 22  1  0
 22 23  2  0
 22 24  1  0
 24 25  2  0
 25 26  1  0
 26 27  2  0
 27 28  1  0
 28 29  2  0
 28 30  1  0
 30 31  2  0
 30 32  2  0
 30 33  1  0
 33 34  1  0
 34 35  1  0
 35 36  1  0
 36 37  1  0
 20  9  1  0
 18 13  1  0
 29 24  1  0
 37 33  1  0
  1 38  1  0
  1 39  1  0
  1 40  1  0
  2 41  1  0
  2 42  1  0
  4 43  1  0
  4 44  1  0
  5 45  1  0
  5 46  1  0
  5 47  1  0
 10 48  1  0
 11 49  1  0
 14 50  1  0
 14 51  1  0
 15 52  1  0
 15 53  1  0
 16 54  1  0
 16 55  1  0
 17 56  1  0
 17 57  1  0
 18 58  1  0
 18 59  1  0
 20 60  1  0
 21 61  1  0
 25 62  1  0
 26 63  1  0
 27 64  1  0
 29 65  1  0
 34 66  1  0
 34 67  1  0
 35 68  1  0
 35 69  1  0
 36 70  1  0
 36 71  1  0
 37 72  1  0
 37 73  1  0
M  END
>  <mol_id>  (28) 
Z26543951

>  <drugclip_rank>  (28) 
28

>  <conformer>  (28) 
21

>  <align_rmsd>  (28) 
0.444

$$$$
Z26534315
     RDKit          3D

 72 75  0  0  0  0  0  0  0  0999 V2000
    2.9952   -1.5318    4.8572 C   0  0  0  0  0  0  0  0  0  0  0  0
    3.5681   -2.7432    4.1432 C   0  0  0  0  0  0  0  0  0  0  0  0
    4.9080   -2.5200    3.5405 N   0  0  0  0  0  0  0  0  0  0  0  0
    5.9217   -1.8132    4.3540 C   0  0  0  0  0  0  0  0  0  0  0  0
    6.3136   -2.6371    5.5693 C   0  0  0  0  0  0  0  0  0  0  0  0
    5.0055   -2.3669    1.8476 S   0  0  0  0  0  0  0  0  0  0  0  0
    4.0671   -3.2889    1.2427 O   0  0  0  0  0  0  0  0  0  0  0  0
    6.4044   -2.3798    1.4657 O   0  0  0  0  0  0  0  0  0  0  0  0
    4.4035   -0.7155    1.5662 C   0  0  0  0  0  0  0  0  0  0  0  0
    5.3092    0.3471    1.5256 C   0  0  0  0  0  0  0  0  0  0  0  0
    4.8442    1.6393    1.2822 C   0  0  0  0  0  0  0  0  0  0  0  0
    3.4771    1.8784    1.0769 C   0  0  0  0  0  0  0  0  0  0  0  0
    2.9632    3.1715    0.7970 N   0  0  0  0  0  0  0  0  0  0  0  0
    3.3220    4.2150    1.7936 C   0  0  0  0  0  0  0  0  0  0  0  0
    4.3005    5.2476    1.2149 C   0  0  0  0  0  0  0  0  0  0  0  0
    3.7877    5.9176    0.0549 O   0  0  0  0  0  0  0  0  0  0  0  0
    2.9604    5.0798   -0.7707 C   0  0  0  0  0  0  0  0  0  0  0  0
    3.2476    3.5780   -0.6049 C   0  0  0  0  0  0  0  0  0  0  0  0
    2.5718    0.7862    1.1194 C   0  0  0  0  0  0  0  0  0  0  0  0
    3.0393   -0.5083    1.3396 C   0  0  0  0  0  0  0  0  0  0  0  0
    1.2121    1.1126    0.9327 N   0  0  0  0  0  0  0  0  0  0  0  0
    0.1106    0.2924    1.0322 C   0  0  0  0  0  0  0  0  0  0  0  0
    0.1402   -0.8857    1.3701 O   0  0  0  0  0  0  0  0  0  0  0  0
   -1.1578    0.9651    0.7453 C   0  0  0  0  0  0  0  0  0  0  0  0
   -1.4535    2.0349   -0.1491 C   0  0  0  0  0  0  0  0  0  0  0  0
   -0.5582    2.7482   -1.0933 C   0  0  0  0  0  0  0  0  0  0  0  0
   -2.7426    2.3829   -0.1054 N   0  0  0  0  0  0  0  0  0  0  0  0
   -3.3062    1.4811    0.7247 N   0  0  0  0  0  0  0  0  0  0  0  0
   -2.3941    0.6210    1.2854 C   0  0  0  0  0  0  0  0  0  0  0  0
   -2.7598   -0.4650    2.2354 C   0  0  0  0  0  0  0  0  0  0  0  0
   -4.7495    1.5364    0.9387 C   0  0  0  0  0  0  0  0  0  0  0  0
   -5.4866    0.5262    0.0937 C   0  0  0  0  0  0  0  0  0  0  0  0
   -5.5090    0.6521   -1.3038 C   0  0  0  0  0  0  0  0  0  0  0  0
   -6.1929   -0.2754   -2.0911 C   0  0  0  0  0  0  0  0  0  0  0  0
   -6.8624   -1.3396   -1.4905 C   0  0  0  0  0  0  0  0  0  0  0  0
   -6.8500   -1.4771   -0.1035 C   0  0  0  0  0  0  0  0  0  0  0  0
   -6.1662   -0.5493    0.6859 C   0  0  0  0  0  0  0  0  0  0  0  0
    2.9978   -0.6414    4.2236 H   0  0  0  0  0  0  0  0  0  0  0  0
    3.5590   -1.2978    5.7658 H   0  0  0  0  0  0  0  0  0  0  0  0
    1.9617   -1.7322    5.1619 H   0  0  0  0  0  0  0  0  0  0  0  0
    2.8517   -3.0655    3.3810 H   0  0  0  0  0  0  0  0  0  0  0  0
    3.6446   -3.5828    4.8424 H   0  0  0  0  0  0  0  0  0  0  0  0
    6.8328   -1.6447    3.7717 H   0  0  0  0  0  0  0  0  0  0  0  0
    5.5579   -0.8261    4.6523 H   0  0  0  0  0  0  0  0  0  0  0  0
    7.1132   -2.1342    6.1245 H   0  0  0  0  0  0  0  0  0  0  0  0
    5.4721   -2.7830    6.2537 H   0  0  0  0  0  0  0  0  0  0  0  0
    6.6772   -3.6251    5.2704 H   0  0  0  0  0  0  0  0  0  0  0  0
    6.3743    0.1749    1.6679 H   0  0  0  0  0  0  0  0  0  0  0  0
    5.5629    2.4519    1.2378 H   0  0  0  0  0  0  0  0  0  0  0  0
    3.7090    3.7855    2.7269 H   0  0  0  0  0  0  0  0  0  0  0  0
    2.3865    4.7305    2.0486 H   0  0  0  0  0  0  0  0  0  0  0  0
    4.5264    6.0139    1.9620 H   0  0  0  0  0  0  0  0  0  0  0  0
    5.2483    4.7809    0.9346 H   0  0  0  0  0  0  0  0  0  0  0  0
    1.9162    5.2996   -0.5193 H   0  0  0  0  0  0  0  0  0  0  0  0
    3.1212    5.3820   -1.8101 H   0  0  0  0  0  0  0  0  0  0  0  0
    2.6142    3.0018   -1.2873 H   0  0  0  0  0  0  0  0  0  0  0  0
    4.2964    3.3847   -0.8654 H   0  0  0  0  0  0  0  0  0  0  0  0
    2.3668   -1.3604    1.3444 H   0  0  0  0  0  0  0  0  0  0  0  0
    1.0704    2.1107    0.8215 H   0  0  0  0  0  0  0  0  0  0  0  0
    0.1815    2.0657   -1.5230 H   0  0  0  0  0  0  0  0  0  0  0  0
   -1.1241    3.1800   -1.9249 H   0  0  0  0  0  0  0  0  0  0  0  0
   -0.0357    3.5626   -0.5828 H   0  0  0  0  0  0  0  0  0  0  0  0
   -3.6130   -0.1961    2.8643 H   0  0  0  0  0  0  0  0  0  0  0  0
   -3.0156   -1.3762    1.6850 H   0  0  0  0  0  0  0  0  0  0  0  0
   -1.9321   -0.6949    2.9122 H   0  0  0  0  0  0  0  0  0  0  0  0
   -5.0916    2.5496    0.6950 H   0  0  0  0  0  0  0  0  0  0  0  0
   -4.9354    1.3913    2.0074 H   0  0  0  0  0  0  0  0  0  0  0  0
   -4.9808    1.4738   -1.7864 H   0  0  0  0  0  0  0  0  0  0  0  0
   -6.1972   -0.1707   -3.1729 H   0  0  0  0  0  0  0  0  0  0  0  0
   -7.3912   -2.0635   -2.1048 H   0  0  0  0  0  0  0  0  0  0  0  0
   -7.3743   -2.3078    0.3623 H   0  0  0  0  0  0  0  0  0  0  0  0
   -6.1689   -0.6739    1.7657 H   0  0  0  0  0  0  0  0  0  0  0  0
  1  2  1  0
  2  3  1  0
  3  4  1  0
  4  5  1  0
  3  6  1  0
  6  7  2  0
  6  8  2  0
  6  9  1  0
  9 10  2  0
 10 11  1  0
 11 12  2  0
 12 13  1  0
 13 14  1  0
 14 15  1  0
 15 16  1  0
 16 17  1  0
 17 18  1  0
 12 19  1  0
 19 20  2  0
 19 21  1  0
 21 22  1  0
 22 23  2  0
 22 24  1  0
 24 25  1  0
 25 26  1  0
 25 27  2  0
 27 28  1  0
 28 29  1  0
 29 30  1  0
 28 31  1  0
 31 32  1  0
 32 33  2  0
 33 34  1  0
 34 35  2  0
 35 36  1  0
 36 37  2  0
 20  9  1  0
 18 13  1  0
 29 24  2  0
 37 32  1  0
  1 38  1  0
  1 39  1  0
  1 40  1  0
  2 41  1  0
  2 42  1  0
  4 43  1  0
  4 44  1  0
  5 45  1  0
  5 46  1  0
  5 47  1  0
 10 48  1  0
 11 49  1  0
 14 50  1  0
 14 51  1  0
 15 52  1  0
 15 53  1  0
 17 54  1  0
 17 55  1  0
 18 56  1  0
 18 57  1  0
 20 58  1  0
 21 59  1  0
 26 60  1  0
 26 61  1  0
 26 62  1  0
 30 63  1  0
 30 64  1  0
 30 65  1  0
 31 66  1  0
 31 67  1  0
 33 68  1  0
 34 69  1  0
 35 70  1  0
 36 71  1  0
 37 72  1  0
M  END
>  <mol_id>  (29) 
Z26534315

>  <drugclip_rank>  (29) 
29

>  <conformer>  (29) 
36

>  <align_rmsd>  (29) 
0.543

$$$$
STK071041
     RDKit          3D

 71 73  0  0  0  0  0  0  0  0999 V2000
   -7.7982    1.0017   -0.5489 C   0  0  0  0  0  0  0  0  0  0  0  0
   -8.2455   -0.0525   -1.3463 C   0  0  0  0  0  0  0  0  0  0  0  0
   -7.3795   -0.6837   -2.2514 C   0  0  0  0  0  0  0  0  0  0  0  0
   -7.8934   -1.8204   -3.0928 C   0  0  0  0  0  0  0  0  0  0  0  0
   -6.0418   -0.2500   -2.3406 C   0  0  0  0  0  0  0  0  0  0  0  0
   -5.0622   -0.9107   -3.2721 C   0  0  0  0  0  0  0  0  0  0  0  0
   -5.6071    0.8155   -1.5340 C   0  0  0  0  0  0  0  0  0  0  0  0
   -6.4850    1.4563   -0.6585 C   0  0  0  0  0  0  0  0  0  0  0  0
   -6.0701    2.5066    0.2296 N   0  0  0  0  0  0  0  0  0  0  0  0
   -5.3976    3.9110   -0.4410 S   0  0  0  0  0  0  0  0  0  0  0  0
   -5.2378    4.8774    0.6288 O   0  0  0  0  0  0  0  0  0  0  0  0
   -4.2733    3.5755   -1.2899 O   0  0  0  0  0  0  0  0  0  0  0  0
   -6.7275    4.4949   -1.4730 C   0  0  0  0  0  0  0  0  0  0  0  0
   -5.5396    2.0858    1.5529 C   0  0  0  0  0  0  0  0  0  0  0  0
   -4.1232    1.5541    1.5584 C   0  0  0  0  0  0  0  0  0  0  0  0
   -3.8726    0.1852    1.3788 C   0  0  0  0  0  0  0  0  0  0  0  0
   -2.5626   -0.2986    1.3507 C   0  0  0  0  0  0  0  0  0  0  0  0
   -3.0376    2.4255    1.7303 C   0  0  0  0  0  0  0  0  0  0  0  0
   -1.7262    1.9451    1.7010 C   0  0  0  0  0  0  0  0  0  0  0  0
   -1.4856    0.5824    1.4920 C   0  0  0  0  0  0  0  0  0  0  0  0
   -0.1044    0.0328    1.4318 C   0  0  0  0  0  0  0  0  0  0  0  0
    0.1125   -1.0929    1.8687 O   0  0  0  0  0  0  0  0  0  0  0  0
    0.8295    0.8663    0.8334 N   0  0  0  0  0  0  0  0  0  0  0  0
    2.1270    0.4646    0.7287 N   0  0  0  0  0  0  0  0  0  0  0  0
    2.9156    1.2731    0.0972 C   0  0  0  0  0  0  0  0  0  0  0  0
    4.3493    0.9691   -0.0838 C   0  0  0  0  0  0  0  0  0  0  0  0
    4.8989   -0.2081    0.4344 C   0  0  0  0  0  0  0  0  0  0  0  0
    5.1489    1.8790   -0.7745 C   0  0  0  0  0  0  0  0  0  0  0  0
    6.5103    1.6153   -0.9431 C   0  0  0  0  0  0  0  0  0  0  0  0
    7.0743    0.4434   -0.4234 C   0  0  0  0  0  0  0  0  0  0  0  0
    6.2587   -0.4825    0.2628 C   0  0  0  0  0  0  0  0  0  0  0  0
    6.8942   -1.6004    0.7417 O   0  0  0  0  0  0  0  0  0  0  0  0
    6.1182   -2.6777    1.2620 C   0  0  0  0  0  0  0  0  0  0  0  0
    5.9180   -2.5219    2.7595 C   0  0  0  0  0  0  0  0  0  0  0  0
    8.3995    0.1032   -0.5425 O   0  0  0  0  0  0  0  0  0  0  0  0
    9.2877    1.0665   -1.0976 C   0  0  0  0  0  0  0  0  0  0  0  0
   10.6693    0.4862   -1.0481 C   0  0  0  0  0  0  0  0  0  0  0  0
   11.7266    1.0730   -0.4711 C   0  0  0  0  0  0  0  0  0  0  0  0
   -8.4835    1.4696    0.1530 H   0  0  0  0  0  0  0  0  0  0  0  0
   -9.2780   -0.3829   -1.2516 H   0  0  0  0  0  0  0  0  0  0  0  0
   -7.7625   -1.5966   -4.1562 H   0  0  0  0  0  0  0  0  0  0  0  0
   -7.3639   -2.7457   -2.8448 H   0  0  0  0  0  0  0  0  0  0  0  0
   -8.9620   -1.9925   -2.9244 H   0  0  0  0  0  0  0  0  0  0  0  0
   -5.4021   -0.8199   -4.3084 H   0  0  0  0  0  0  0  0  0  0  0  0
   -4.0715   -0.4481   -3.2091 H   0  0  0  0  0  0  0  0  0  0  0  0
   -4.9489   -1.9686   -3.0156 H   0  0  0  0  0  0  0  0  0  0  0  0
   -4.5672    1.1312   -1.5862 H   0  0  0  0  0  0  0  0  0  0  0  0
   -6.8993    3.7859   -2.2841 H   0  0  0  0  0  0  0  0  0  0  0  0
   -6.4264    5.4589   -1.8893 H   0  0  0  0  0  0  0  0  0  0  0  0
   -7.6226    4.6217   -0.8612 H   0  0  0  0  0  0  0  0  0  0  0  0
   -6.2063    1.3230    1.9793 H   0  0  0  0  0  0  0  0  0  0  0  0
   -5.6202    2.9228    2.2585 H   0  0  0  0  0  0  0  0  0  0  0  0
   -4.6967   -0.5141    1.2488 H   0  0  0  0  0  0  0  0  0  0  0  0
   -2.3809   -1.3623    1.2073 H   0  0  0  0  0  0  0  0  0  0  0  0
   -3.2069    3.4905    1.8865 H   0  0  0  0  0  0  0  0  0  0  0  0
   -0.9103    2.6434    1.8647 H   0  0  0  0  0  0  0  0  0  0  0  0
    0.5382    1.7243    0.3798 H   0  0  0  0  0  0  0  0  0  0  0  0
    2.5517    2.2247   -0.3305 H   0  0  0  0  0  0  0  0  0  0  0  0
    4.2469   -0.8848    0.9779 H   0  0  0  0  0  0  0  0  0  0  0  0
    4.7304    2.7943   -1.1843 H   0  0  0  0  0  0  0  0  0  0  0  0
    7.1034    2.3419   -1.4881 H   0  0  0  0  0  0  0  0  0  0  0  0
    6.6991   -3.5907    1.0866 H   0  0  0  0  0  0  0  0  0  0  0  0
    5.1746   -2.8179    0.7234 H   0  0  0  0  0  0  0  0  0  0  0  0
    6.8847   -2.4522    3.2695 H   0  0  0  0  0  0  0  0  0  0  0  0
    5.3677   -1.6074    2.9992 H   0  0  0  0  0  0  0  0  0  0  0  0
    5.3677   -3.3753    3.1665 H   0  0  0  0  0  0  0  0  0  0  0  0
    9.2427    2.0025   -0.5282 H   0  0  0  0  0  0  0  0  0  0  0  0
    9.0314    1.2536   -2.1466 H   0  0  0  0  0  0  0  0  0  0  0  0
   10.7943   -0.4878   -1.5160 H   0  0  0  0  0  0  0  0  0  0  0  0
   11.6496    2.0390    0.0176 H   0  0  0  0  0  0  0  0  0  0  0  0
   12.6959    0.5837   -0.4670 H   0  0  0  0  0  0  0  0  0  0  0  0
  1  2  2  0
  2  3  1  0
  3  4  1  0
  3  5  2  0
  5  6  1  0
  5  7  1  0
  7  8  2  0
  8  9  1  0
  9 10  1  0
 10 11  2  0
 10 12  2  0
 10 13  1  0
  9 14  1  0
 14 15  1  0
 15 16  2  0
 16 17  1  0
 15 18  1  0
 18 19  2  0
 19 20  1  0
 20 21  1  0
 21 22  2  0
 21 23  1  0
 23 24  1  0
 24 25  2  0
 25 26  1  0
 26 27  2  0
 26 28  1  0
 28 29  2  0
 29 30  1  0
 30 31  2  0
 31 32  1  0
 32 33  1  0
 33 34  1  0
 30 35  1  0
 35 36  1  0
 36 37  1  0
 37 38  2  0
  8  1  1  0
 20 17  2  0
 31 27  1  0
  1 39  1  0
  2 40  1  0
  4 41  1  0
  4 42  1  0
  4 43  1  0
  6 44  1  0
  6 45  1  0
  6 46  1  0
  7 47  1  0
 13 48  1  0
 13 49  1  0
 13 50  1  0
 14 51  1  0
 14 52  1  0
 16 53  1  0
 17 54  1  0
 18 55  1  0
 19 56  1  0
 23 57  1  0
 25 58  1  0
 27 59  1  0
 28 60  1  0
 29 61  1  0
 33 62  1  0
 33 63  1  0
 34 64  1  0
 34 65  1  0
 34 66  1  0
 36 67  1  0
 36 68  1  0
 37 69  1  0
 38 70  1  0
 38 71  1  0
M  END
>  <mol_id>  (30) 
STK071041

>  <drugclip_rank>  (30) 
30

>  <conformer>  (30) 
34

>  <align_rmsd>  (30) 
0.959

$$$$
STK219929
     RDKit          3D

 71 74  0  0  0  0  0  0  0  0999 V2000
   -7.5997    6.0155   -0.1357 C   0  0  0  0  0  0  0  0  0  0  0  0
   -6.5020    5.0723    0.3287 C   0  0  0  0  0  0  0  0  0  0  0  0
   -6.8595    3.6116    0.0419 C   0  0  0  0  0  0  0  0  0  0  0  0
   -5.7684    2.6490    0.5099 C   0  0  0  0  0  0  0  0  0  0  0  0
   -4.5811    2.9054   -0.2395 O   0  0  0  0  0  0  0  0  0  0  0  0
   -3.4647    2.1908    0.0911 C   0  0  0  0  0  0  0  0  0  0  0  0
   -3.3880    1.1785    1.0467 C   0  0  0  0  0  0  0  0  0  0  0  0
   -2.1678    0.5375    1.2940 C   0  0  0  0  0  0  0  0  0  0  0  0
   -2.3203    2.5392   -0.6317 C   0  0  0  0  0  0  0  0  0  0  0  0
   -1.1005    1.9017   -0.3913 C   0  0  0  0  0  0  0  0  0  0  0  0
   -1.0156    0.9077    0.5903 C   0  0  0  0  0  0  0  0  0  0  0  0
    0.2678    0.2134    0.9013 C   0  0  0  0  0  0  0  0  0  0  0  0
    0.2306   -0.9389    1.3165 O   0  0  0  0  0  0  0  0  0  0  0  0
    1.3964    0.9860    0.7413 N   0  0  0  0  0  0  0  0  0  0  0  0
    2.7483    0.6116    0.8943 C   0  0  0  0  0  0  0  0  0  0  0  0
    3.6907    1.6709    0.8191 C   0  0  0  0  0  0  0  0  0  0  0  0
    5.0529    1.3610    0.9153 C   0  0  0  0  0  0  0  0  0  0  0  0
    5.4752    0.0371    1.0735 C   0  0  0  0  0  0  0  0  0  0  0  0
    4.5400   -1.0028    1.1461 C   0  0  0  0  0  0  0  0  0  0  0  0
    3.1730   -0.7093    1.0602 C   0  0  0  0  0  0  0  0  0  0  0  0
    4.9491   -2.4273    1.3033 C   0  0  0  0  0  0  0  0  0  0  0  0
    4.1648   -3.3590    1.3807 O   0  0  0  0  0  0  0  0  0  0  0  0
    6.3028   -2.5309    1.3388 O   0  0  0  0  0  0  0  0  0  0  0  0
    6.7772   -3.8709    1.4806 C   0  0  0  0  0  0  0  0  0  0  0  0
    3.2164    2.9999    0.7027 N   0  0  0  0  0  0  0  0  0  0  0  0
    3.9505    3.8791   -0.2304 C   0  0  0  0  0  0  0  0  0  0  0  0
    3.3077    5.2793   -0.2508 C   0  0  0  0  0  0  0  0  0  0  0  0
    2.9015    3.6014    2.0313 C   0  0  0  0  0  0  0  0  0  0  0  0
    3.5127    5.0011    2.2193 C   0  0  0  0  0  0  0  0  0  0  0  0
    3.2634    5.8955    1.0847 N   0  0  0  0  0  0  0  0  0  0  0  0
    3.2459    7.2668    1.3208 C   0  0  0  0  0  0  0  0  0  0  0  0
    3.4635    7.7633    2.4242 O   0  0  0  0  0  0  0  0  0  0  0  0
    2.9627    8.1833    0.1935 C   0  0  0  0  0  0  0  0  0  0  0  0
    1.7860    8.0643   -0.5538 C   0  0  0  0  0  0  0  0  0  0  0  0
    1.5405    8.9526   -1.6018 C   0  0  0  0  0  0  0  0  0  0  0  0
    2.4597    9.9631   -1.8900 C   0  0  0  0  0  0  0  0  0  0  0  0
    3.6195   10.0979   -1.1246 C   0  0  0  0  0  0  0  0  0  0  0  0
    3.8703    9.2126   -0.0766 C   0  0  0  0  0  0  0  0  0  0  0  0
   -8.5469    5.7965    0.3669 H   0  0  0  0  0  0  0  0  0  0  0  0
   -7.3284    7.0517    0.0878 H   0  0  0  0  0  0  0  0  0  0  0  0
   -7.7572    5.9307   -1.2155 H   0  0  0  0  0  0  0  0  0  0  0  0
   -5.5667    5.3413   -0.1757 H   0  0  0  0  0  0  0  0  0  0  0  0
   -6.3418    5.2099    1.4047 H   0  0  0  0  0  0  0  0  0  0  0  0
   -7.8011    3.3567    0.5423 H   0  0  0  0  0  0  0  0  0  0  0  0
   -7.0107    3.4888   -1.0380 H   0  0  0  0  0  0  0  0  0  0  0  0
   -6.1032    1.6215    0.3281 H   0  0  0  0  0  0  0  0  0  0  0  0
   -5.5881    2.7949    1.5808 H   0  0  0  0  0  0  0  0  0  0  0  0
   -4.2552    0.8603    1.6166 H   0  0  0  0  0  0  0  0  0  0  0  0
   -2.1173   -0.2507    2.0431 H   0  0  0  0  0  0  0  0  0  0  0  0
   -2.3836    3.3130   -1.3930 H   0  0  0  0  0  0  0  0  0  0  0  0
   -0.2397    2.1781   -0.9924 H   0  0  0  0  0  0  0  0  0  0  0  0
    1.2958    1.9786    0.5499 H   0  0  0  0  0  0  0  0  0  0  0  0
    5.8076    2.1406    0.8942 H   0  0  0  0  0  0  0  0  0  0  0  0
    6.5408   -0.1662    1.1448 H   0  0  0  0  0  0  0  0  0  0  0  0
    2.4567   -1.5250    1.1054 H   0  0  0  0  0  0  0  0  0  0  0  0
    6.5038   -4.2662    2.4635 H   0  0  0  0  0  0  0  0  0  0  0  0
    6.3872   -4.5107    0.6829 H   0  0  0  0  0  0  0  0  0  0  0  0
    7.8680   -3.8536    1.4049 H   0  0  0  0  0  0  0  0  0  0  0  0
    3.9176    3.4542   -1.2403 H   0  0  0  0  0  0  0  0  0  0  0  0
    5.0019    3.9841    0.0605 H   0  0  0  0  0  0  0  0  0  0  0  0
    3.8568    5.9277   -0.9405 H   0  0  0  0  0  0  0  0  0  0  0  0
    2.2723    5.1991   -0.5998 H   0  0  0  0  0  0  0  0  0  0  0  0
    3.2269    2.9626    2.8617 H   0  0  0  0  0  0  0  0  0  0  0  0
    1.8100    3.6860    2.0974 H   0  0  0  0  0  0  0  0  0  0  0  0
    4.6018    4.9210    2.3238 H   0  0  0  0  0  0  0  0  0  0  0  0
    3.1329    5.4483    3.1442 H   0  0  0  0  0  0  0  0  0  0  0  0
    1.0546    7.2979   -0.3116 H   0  0  0  0  0  0  0  0  0  0  0  0
    0.6288    8.8669   -2.1887 H   0  0  0  0  0  0  0  0  0  0  0  0
    2.2657   10.6585   -2.7035 H   0  0  0  0  0  0  0  0  0  0  0  0
    4.3233   10.8984   -1.3409 H   0  0  0  0  0  0  0  0  0  0  0  0
    4.7663    9.3252    0.5286 H   0  0  0  0  0  0  0  0  0  0  0  0
  1  2  1  0
  2  3  1  0
  3  4  1  0
  4  5  1  0
  5  6  1  0
  6  7  2  0
  7  8  1  0
  6  9  1  0
  9 10  2  0
 10 11  1  0
 11 12  1  0
 12 13  2  0
 12 14  1  0
 14 15  1  0
 15 16  1  0
 16 17  2  0
 17 18  1  0
 18 19  2  0
 19 20  1  0
 19 21  1  0
 21 22  2  0
 21 23  1  0
 23 24  1  0
 16 25  1  0
 25 26  1  0
 26 27  1  0
 25 28  1  0
 28 29  1  0
 29 30  1  0
 30 31  1  0
 31 32  2  0
 31 33  1  0
 33 34  2  0
 34 35  1  0
 35 36  2  0
 36 37  1  0
 37 38  2  0
 11  8  2  0
 20 15  2  0
 30 27  1  0
 38 33  1  0
  1 39  1  0
  1 40  1  0
  1 41  1  0
  2 42  1  0
  2 43  1  0
  3 44  1  0
  3 45  1  0
  4 46  1  0
  4 47  1  0
  7 48  1  0
  8 49  1  0
  9 50  1  0
 10 51  1  0
 14 52  1  0
 17 53  1  0
 18 54  1  0
 20 55  1  0
 24 56  1  0
 24 57  1  0
 24 58  1  0
 26 59  1  0
 26 60  1  0
 27 61  1  0
 27 62  1  0
 28 63  1  0
 28 64  1  0
 29 65  1  0
 29 66  1  0
 34 67  1  0
 35 68  1  0
 36 69  1  0
 37 70  1  0
 38 71  1  0
M  END
>  <mol_id>  (31) 
STK219929

>  <drugclip_rank>  (31) 
31

>  <conformer>  (31) 
12

>  <align_rmsd>  (31) 
0.625

$$$$
V007-0166
     RDKit          3D

 71 75  0  0  0  0  0  0  0  0999 V2000
   -7.3463    1.1489   -2.6239 C   0  0  0  0  0  0  0  0  0  0  0  0
   -8.4891    0.7732   -1.9088 C   0  0  0  0  0  0  0  0  0  0  0  0
   -8.3588    0.0730   -0.7162 C   0  0  0  0  0  0  0  0  0  0  0  0
   -7.0869   -0.2474   -0.2576 C   0  0  0  0  0  0  0  0  0  0  0  0
   -6.9574   -0.9345    0.8874 F   0  0  0  0  0  0  0  0  0  0  0  0
   -5.9383    0.1237   -0.9579 C   0  0  0  0  0  0  0  0  0  0  0  0
   -6.0517    0.8296   -2.1585 C   0  0  0  0  0  0  0  0  0  0  0  0
   -4.9200    1.2437   -2.9391 N   0  0  0  0  0  0  0  0  0  0  0  0
   -5.1575    1.9363   -4.0920 N   0  0  0  0  0  0  0  0  0  0  0  0
   -3.9584    2.2109   -4.6256 C   0  0  0  0  0  0  0  0  0  0  0  0
   -3.7796    2.9674   -5.8733 C   0  0  0  0  0  0  0  0  0  0  0  0
   -2.6748    3.2097   -6.3507 O   0  0  0  0  0  0  0  0  0  0  0  0
   -4.9600    3.3757   -6.4313 O   0  0  0  0  0  0  0  0  0  0  0  0
   -4.8118    4.1573   -7.6194 C   0  0  0  0  0  0  0  0  0  0  0  0
   -6.1950    4.5735   -8.0791 C   0  0  0  0  0  0  0  0  0  0  0  0
   -2.9308    1.6890   -3.8165 C   0  0  0  0  0  0  0  0  0  0  0  0
   -3.5473    1.0780   -2.7402 C   0  0  0  0  0  0  0  0  0  0  0  0
   -2.8687    0.4172   -1.6352 C   0  0  0  0  0  0  0  0  0  0  0  0
   -2.5690   -0.9438   -1.7011 C   0  0  0  0  0  0  0  0  0  0  0  0
   -1.8909   -1.5637   -0.6460 C   0  0  0  0  0  0  0  0  0  0  0  0
   -1.4823   -0.8480    0.4922 C   0  0  0  0  0  0  0  0  0  0  0  0
   -1.7836    0.5203    0.5321 C   0  0  0  0  0  0  0  0  0  0  0  0
   -2.4573    1.1519   -0.5219 C   0  0  0  0  0  0  0  0  0  0  0  0
   -0.8298   -1.5291    1.5292 N   0  0  0  0  0  0  0  0  0  0  0  0
    0.4875   -2.1057    1.1401 C   0  0  0  0  0  0  0  0  0  0  0  0
    0.9607   -3.1066    2.2202 C   0  0  0  0  0  0  0  0  0  0  0  0
   -0.8181   -0.9044    2.8757 C   0  0  0  0  0  0  0  0  0  0  0  0
   -0.3295   -1.9268    3.9212 C   0  0  0  0  0  0  0  0  0  0  0  0
    0.9815   -2.4700    3.5441 N   0  0  0  0  0  0  0  0  0  0  0  0
    2.1110   -1.9375    4.1556 C   0  0  0  0  0  0  0  0  0  0  0  0
    2.0154   -1.0805    5.0426 O   0  0  0  0  0  0  0  0  0  0  0  0
    3.5153   -2.4669    3.7808 C   0  0  0  0  0  0  0  0  0  0  0  0
    3.6408   -3.9245    4.2324 C   0  0  0  0  0  0  0  0  0  0  0  0
    3.8778   -2.4068    2.4063 O   0  0  0  0  0  0  0  0  0  0  0  0
    4.2453   -1.2037    1.8726 C   0  0  0  0  0  0  0  0  0  0  0  0
    4.1576    0.0421    2.4945 C   0  0  0  0  0  0  0  0  0  0  0  0
    4.5696    1.1966    1.8200 C   0  0  0  0  0  0  0  0  0  0  0  0
    5.0678    1.1112    0.5224 C   0  0  0  0  0  0  0  0  0  0  0  0
    5.1572   -0.1291   -0.1038 C   0  0  0  0  0  0  0  0  0  0  0  0
    4.7455   -1.2800    0.5694 C   0  0  0  0  0  0  0  0  0  0  0  0
   -7.4877    1.6928   -3.5570 H   0  0  0  0  0  0  0  0  0  0  0  0
   -9.4762    1.0304   -2.2885 H   0  0  0  0  0  0  0  0  0  0  0  0
   -9.2285   -0.2328   -0.1440 H   0  0  0  0  0  0  0  0  0  0  0  0
   -4.9980   -0.1701   -0.5142 H   0  0  0  0  0  0  0  0  0  0  0  0
   -4.3293    3.5584   -8.4020 H   0  0  0  0  0  0  0  0  0  0  0  0
   -4.2077    5.0465   -7.4060 H   0  0  0  0  0  0  0  0  0  0  0  0
   -6.8073    3.6918   -8.3041 H   0  0  0  0  0  0  0  0  0  0  0  0
   -6.7120    5.1270   -7.2865 H   0  0  0  0  0  0  0  0  0  0  0  0
   -6.1406    5.2026   -8.9734 H   0  0  0  0  0  0  0  0  0  0  0  0
   -1.8649    1.7599   -3.9924 H   0  0  0  0  0  0  0  0  0  0  0  0
   -2.8702   -1.5360   -2.5608 H   0  0  0  0  0  0  0  0  0  0  0  0
   -1.6951   -2.6338   -0.7108 H   0  0  0  0  0  0  0  0  0  0  0  0
   -1.4770    1.1346    1.3726 H   0  0  0  0  0  0  0  0  0  0  0  0
   -2.6467    2.2193   -0.4631 H   0  0  0  0  0  0  0  0  0  0  0  0
    1.2197   -1.2929    1.0356 H   0  0  0  0  0  0  0  0  0  0  0  0
    0.4333   -2.6391    0.1845 H   0  0  0  0  0  0  0  0  0  0  0  0
    0.2532   -3.9423    2.2858 H   0  0  0  0  0  0  0  0  0  0  0  0
    1.9249   -3.5291    1.9416 H   0  0  0  0  0  0  0  0  0  0  0  0
   -0.1505   -0.0319    2.8847 H   0  0  0  0  0  0  0  0  0  0  0  0
   -1.8281   -0.5823    3.1577 H   0  0  0  0  0  0  0  0  0  0  0  0
   -1.0275   -2.7722    3.9725 H   0  0  0  0  0  0  0  0  0  0  0  0
   -0.2992   -1.4662    4.9147 H   0  0  0  0  0  0  0  0  0  0  0  0
    4.2507   -1.9049    4.3736 H   0  0  0  0  0  0  0  0  0  0  0  0
    4.6792   -4.2615    4.1311 H   0  0  0  0  0  0  0  0  0  0  0  0
    3.3314   -4.0515    5.2756 H   0  0  0  0  0  0  0  0  0  0  0  0
    3.0356   -4.5971    3.6156 H   0  0  0  0  0  0  0  0  0  0  0  0
    3.7731    0.1621    3.5020 H   0  0  0  0  0  0  0  0  0  0  0  0
    4.5006    2.1641    2.3146 H   0  0  0  0  0  0  0  0  0  0  0  0
    5.3897    2.0084    0.0054 H   0  0  0  0  0  0  0  0  0  0  0  0
    5.5548   -0.2048   -1.1115 H   0  0  0  0  0  0  0  0  0  0  0  0
    4.8294   -2.2459    0.0757 H   0  0  0  0  0  0  0  0  0  0  0  0
  1  2  2  0
  2  3  1  0
  3  4  2  0
  4  5  1  0
  4  6  1  0
  6  7  2  0
  7  8  1  0
  8  9  1  0
  9 10  2  0
 10 11  1  0
 11 12  2  0
 11 13  1  0
 13 14  1  0
 14 15  1  0
 10 16  1  0
 16 17  2  0
 17 18  1  0
 18 19  2  0
 19 20  1  0
 20 21  2  0
 21 22  1  0
 22 23  2  0
 21 24  1  0
 24 25  1  0
 25 26  1  0
 24 27  1  0
 27 28  1  0
 28 29  1  0
 29 30  1  0
 30 31  2  0
 30 32  1  0
 32 33  1  0
 32 34  1  0
 34 35  1  0
 35 36  2  0
 36 37  1  0
 37 38  2  0
 38 39  1  0
 39 40  2  0
  7  1  1  0
 17  8  1  0
 23 18  1  0
 29 26  1  0
 40 35  1  0
  1 41  1  0
  2 42  1  0
  3 43  1  0
  6 44  1  0
 14 45  1  0
 14 46  1  0
 15 47  1  0
 15 48  1  0
 15 49  1  0
 16 50  1  0
 19 51  1  0
 20 52  1  0
 22 53  1  0
 23 54  1  0
 25 55  1  0
 25 56  1  0
 26 57  1  0
 26 58  1  0
 27 59  1  0
 27 60  1  0
 28 61  1  0
 28 62  1  0
 32 63  1  0
 33 64  1  0
 33 65  1  0
 33 66  1  0
 36 67  1  0
 37 68  1  0
 38 69  1  0
 39 70  1  0
 40 71  1  0
M  END
>  <mol_id>  (32) 
V007-0166

>  <drugclip_rank>  (32) 
32

>  <conformer>  (32) 
0

>  <align_rmsd>  (32) 
1.234

$$$$
K788-9145
     RDKit          3D

 72 76  0  0  0  0  0  0  0  0999 V2000
   -6.3404    0.2999   -1.5585 C   0  0  0  0  0  0  0  0  0  0  0  0
   -7.1193   -0.5257   -0.7468 C   0  0  0  0  0  0  0  0  0  0  0  0
   -7.0895   -0.3558    0.6319 C   0  0  0  0  0  0  0  0  0  0  0  0
   -7.8347   -1.1508    1.4107 F   0  0  0  0  0  0  0  0  0  0  0  0
   -6.3018    0.6299    1.2131 C   0  0  0  0  0  0  0  0  0  0  0  0
   -5.5245    1.4597    0.4027 C   0  0  0  0  0  0  0  0  0  0  0  0
   -5.5284    1.2989   -0.9931 C   0  0  0  0  0  0  0  0  0  0  0  0
   -4.6795    2.1846   -1.8837 C   0  0  0  0  0  0  0  0  0  0  0  0
   -3.5947    1.4506   -2.5521 N   0  0  0  0  0  0  0  0  0  0  0  0
   -3.8007    1.1360   -3.8982 C   0  0  0  0  0  0  0  0  0  0  0  0
   -4.8264    1.4578   -4.5060 O   0  0  0  0  0  0  0  0  0  0  0  0
   -2.7093    0.4370   -4.6458 C   0  0  0  0  0  0  0  0  0  0  0  0
   -2.5384    0.7742   -5.9357 C   0  0  0  0  0  0  0  0  0  0  0  0
   -1.5505    0.1977   -6.8524 C   0  0  0  0  0  0  0  0  0  0  0  0
   -0.3230    0.8389   -7.0496 C   0  0  0  0  0  0  0  0  0  0  0  0
    0.6198    0.2938   -7.9235 C   0  0  0  0  0  0  0  0  0  0  0  0
    0.3395   -0.8919   -8.6019 C   0  0  0  0  0  0  0  0  0  0  0  0
   -0.8824   -1.5347   -8.4078 C   0  0  0  0  0  0  0  0  0  0  0  0
   -1.8268   -0.9919   -7.5349 C   0  0  0  0  0  0  0  0  0  0  0  0
   -1.8167   -0.7786   -3.8307 S   0  0  0  0  0  0  0  0  0  0  0  0
   -1.5452    0.0789   -2.3026 C   0  0  0  0  0  0  0  0  0  0  0  0
   -2.4242    1.0588   -1.8127 C   0  0  0  0  0  0  0  0  0  0  0  0
   -0.4181   -0.3098   -1.5559 C   0  0  0  0  0  0  0  0  0  0  0  0
   -0.1364    0.2746   -0.3226 C   0  0  0  0  0  0  0  0  0  0  0  0
   -0.9872    1.2594    0.1714 C   0  0  0  0  0  0  0  0  0  0  0  0
   -2.1214    1.6350   -0.5667 C   0  0  0  0  0  0  0  0  0  0  0  0
   -0.7570    1.9228    1.4836 C   0  0  0  0  0  0  0  0  0  0  0  0
   -1.7091    2.3552    2.1215 O   0  0  0  0  0  0  0  0  0  0  0  0
    0.5562    2.0521    1.8813 N   0  0  0  0  0  0  0  0  0  0  0  0
    0.9138    2.7500    3.1074 C   0  0  0  0  0  0  0  0  0  0  0  0
    0.7371    4.2773    2.9925 C   0  0  0  0  0  0  0  0  0  0  0  0
    1.3603    5.0098    4.1060 N   0  0  0  0  0  0  0  0  0  0  0  0
    2.8351    5.0364    4.0225 C   0  0  0  0  0  0  0  0  0  0  0  0
    3.4727    6.4464    3.9810 C   0  0  0  0  0  0  0  0  0  0  0  0
    3.0226    7.3059    5.0850 N   0  0  0  0  0  0  0  0  0  0  0  0
    1.5540    7.2529    5.2462 C   0  0  0  0  0  0  0  0  0  0  0  0
    0.8040    6.3685    4.2196 C   0  0  0  0  0  0  0  0  0  0  0  0
    3.5431    8.6701    4.9503 C   0  0  0  0  0  0  0  0  0  0  0  0
    3.4479    9.4481    6.2580 C   0  0  0  0  0  0  0  0  0  0  0  0
   -6.3683    0.1593   -2.6368 H   0  0  0  0  0  0  0  0  0  0  0  0
   -7.7394   -1.3020   -1.1801 H   0  0  0  0  0  0  0  0  0  0  0  0
   -6.2933    0.7457    2.2930 H   0  0  0  0  0  0  0  0  0  0  0  0
   -4.9135    2.2261    0.8766 H   0  0  0  0  0  0  0  0  0  0  0  0
   -4.2732    3.0425   -1.3386 H   0  0  0  0  0  0  0  0  0  0  0  0
   -5.3489    2.6438   -2.6225 H   0  0  0  0  0  0  0  0  0  0  0  0
   -3.1684    1.5389   -6.3900 H   0  0  0  0  0  0  0  0  0  0  0  0
   -0.0922    1.7636   -6.5261 H   0  0  0  0  0  0  0  0  0  0  0  0
    1.5730    0.7937   -8.0744 H   0  0  0  0  0  0  0  0  0  0  0  0
    1.0735   -1.3147   -9.2829 H   0  0  0  0  0  0  0  0  0  0  0  0
   -1.1003   -2.4587   -8.9363 H   0  0  0  0  0  0  0  0  0  0  0  0
   -2.7755   -1.5031   -7.3900 H   0  0  0  0  0  0  0  0  0  0  0  0
    0.2430   -1.0903   -1.9297 H   0  0  0  0  0  0  0  0  0  0  0  0
    0.7220   -0.0727    0.2453 H   0  0  0  0  0  0  0  0  0  0  0  0
   -2.7437    2.4117   -0.1354 H   0  0  0  0  0  0  0  0  0  0  0  0
    1.2995    1.8481    1.2283 H   0  0  0  0  0  0  0  0  0  0  0  0
    0.2900    2.3622    3.9230 H   0  0  0  0  0  0  0  0  0  0  0  0
    1.9540    2.4794    3.3192 H   0  0  0  0  0  0  0  0  0  0  0  0
   -0.3420    4.4814    2.9755 H   0  0  0  0  0  0  0  0  0  0  0  0
    1.1296    4.6374    2.0314 H   0  0  0  0  0  0  0  0  0  0  0  0
    3.2173    4.5060    4.9030 H   0  0  0  0  0  0  0  0  0  0  0  0
    3.2024    4.4817    3.1507 H   0  0  0  0  0  0  0  0  0  0  0  0
    4.5621    6.3287    4.0318 H   0  0  0  0  0  0  0  0  0  0  0  0
    3.2456    6.9116    3.0114 H   0  0  0  0  0  0  0  0  0  0  0  0
    1.1022    8.2525    5.2066 H   0  0  0  0  0  0  0  0  0  0  0  0
    1.3543    6.8647    6.2533 H   0  0  0  0  0  0  0  0  0  0  0  0
   -0.2472    6.3039    4.5260 H   0  0  0  0  0  0  0  0  0  0  0  0
    0.8220    6.8737    3.2437 H   0  0  0  0  0  0  0  0  0  0  0  0
    3.0283    9.2132    4.1473 H   0  0  0  0  0  0  0  0  0  0  0  0
    4.6059    8.6331    4.6763 H   0  0  0  0  0  0  0  0  0  0  0  0
    3.8903   10.4434    6.1304 H   0  0  0  0  0  0  0  0  0  0  0  0
    2.4115    9.5843    6.5838 H   0  0  0  0  0  0  0  0  0  0  0  0
    3.9953    8.9388    7.0602 H   0  0  0  0  0  0  0  0  0  0  0  0
  1  2  2  0
  2  3  1  0
  3  4  1  0
  3  5  2  0
  5  6  1  0
  6  7  2  0
  7  8  1  0
  8  9  1  0
  9 10  1  0
 10 11  2  0
 10 12  1  0
 12 13  2  0
 13 14  1  0
 14 15  2  0
 15 16  1  0
 16 17  2  0
 17 18  1  0
 18 19  2  0
 12 20  1  0
 20 21  1  0
 21 22  2  0
 21 23  1  0
 23 24  2  0
 24 25  1  0
 25 26  2  0
 25 27  1  0
 27 28  2  0
 27 29  1  0
 29 30  1  0
 30 31  1  0
 31 32  1  0
 32 33  1  0
 33 34  1  0
 34 35  1  0
 35 36  1  0
 36 37  1  0
 35 38  1  0
 38 39  1  0
  7  1  1  0
 22  9  1  0
 19 14  1  0
 26 22  1  0
 37 32  1  0
  1 40  1  0
  2 41  1  0
  5 42  1  0
  6 43  1  0
  8 44  1  0
  8 45  1  0
 13 46  1  0
 15 47  1  0
 16 48  1  0
 17 49  1  0
 18 50  1  0
 19 51  1  0
 23 52  1  0
 24 53  1  0
 26 54  1  0
 29 55  1  0
 30 56  1  0
 30 57  1  0
 31 58  1  0
 31 59  1  0
 33 60  1  0
 33 61  1  0
 34 62  1  0
 34 63  1  0
 36 64  1  0
 36 65  1  0
 37 66  1  0
 37 67  1  0
 38 68  1  0
 38 69  1  0
 39 70  1  0
 39 71  1  0
 39 72  1  0
M  END
>  <mol_id>  (33) 
K788-9145

>  <drugclip_rank>  (33) 
33

>  <conformer>  (33) 
35

>  <align_rmsd>  (33) 
1.403

$$$$
OSSK_374044
     RDKit          3D

 69 72  0  0  0  0  0  0  0  0999 V2000
   -4.6801   -3.9676  -10.7308 C   0  0  0  0  0  0  0  0  0  0  0  0
   -5.4983   -4.8985   -9.8134 C   0  0  0  0  0  0  0  0  0  0  0  0
   -4.6163   -6.0877   -9.4191 C   0  0  0  0  0  0  0  0  0  0  0  0
   -6.7443   -5.3566  -10.5803 C   0  0  0  0  0  0  0  0  0  0  0  0
   -5.9090   -4.0730   -8.6349 N   0  0  0  0  0  0  0  0  0  0  0  0
   -6.4114   -4.8313   -7.2024 S   0  0  0  0  0  0  0  0  0  0  0  0
   -5.2161   -4.9658   -6.3958 O   0  0  0  0  0  0  0  0  0  0  0  0
   -7.2432   -5.9720   -7.5057 O   0  0  0  0  0  0  0  0  0  0  0  0
   -7.4245   -3.5456   -6.4798 C   0  0  0  0  0  0  0  0  0  0  0  0
   -6.7978   -2.6818   -5.5624 C   0  0  0  0  0  0  0  0  0  0  0  0
   -7.5084   -1.6476   -4.9342 C   0  0  0  0  0  0  0  0  0  0  0  0
   -8.8698   -1.5040   -5.2400 C   0  0  0  0  0  0  0  0  0  0  0  0
   -9.5009   -2.3670   -6.1417 C   0  0  0  0  0  0  0  0  0  0  0  0
   -8.7900   -3.3933   -6.7851 C   0  0  0  0  0  0  0  0  0  0  0  0
   -9.5246   -4.2586   -7.7685 C   0  0  0  0  0  0  0  0  0  0  0  0
   -6.8229   -0.7081   -4.0333 C   0  0  0  0  0  0  0  0  0  0  0  0
   -5.8747    0.0288   -4.6558 N   0  0  0  0  0  0  0  0  0  0  0  0
   -5.1912    0.9870   -3.9706 N   0  0  0  0  0  0  0  0  0  0  0  0
   -5.4344    1.2035   -2.6604 C   0  0  0  0  0  0  0  0  0  0  0  0
   -6.4173    0.4684   -1.9621 C   0  0  0  0  0  0  0  0  0  0  0  0
   -7.1214   -0.5361   -2.6679 C   0  0  0  0  0  0  0  0  0  0  0  0
   -6.7547    0.6960   -0.6040 C   0  0  0  0  0  0  0  0  0  0  0  0
   -7.7154   -0.0696    0.0567 C   0  0  0  0  0  0  0  0  0  0  0  0
   -8.3724   -1.0814   -0.6236 C   0  0  0  0  0  0  0  0  0  0  0  0
   -8.0838   -1.3094   -1.9687 C   0  0  0  0  0  0  0  0  0  0  0  0
   -4.6646    2.2336   -2.0711 N   0  0  0  0  0  0  0  0  0  0  0  0
   -3.7769    2.1002   -0.9726 C   0  0  0  0  0  0  0  0  0  0  0  0
   -3.3246    3.2667   -0.3463 C   0  0  0  0  0  0  0  0  0  0  0  0
   -2.4020    3.2023    0.7012 C   0  0  0  0  0  0  0  0  0  0  0  0
   -1.9023    1.9737    1.1330 C   0  0  0  0  0  0  0  0  0  0  0  0
   -2.3258    0.8073    0.4967 C   0  0  0  0  0  0  0  0  0  0  0  0
   -3.2495    0.8732   -0.5559 C   0  0  0  0  0  0  0  0  0  0  0  0
   -0.9941    2.0595    2.1508 O   0  0  0  0  0  0  0  0  0  0  0  0
   -0.5647    0.8507    2.7662 C   0  0  0  0  0  0  0  0  0  0  0  0
    0.5326    0.1045    2.0022 C   0  0  0  0  0  0  0  0  0  0  0  0
    0.6922   -1.1083    2.1070 O   0  0  0  0  0  0  0  0  0  0  0  0
    1.3353    0.9166    1.2283 N   0  0  0  0  0  0  0  0  0  0  0  0
    2.3280    0.3535    0.3524 C   0  0  0  0  0  0  0  0  0  0  0  0
   -3.7661   -3.6243  -10.2303 H   0  0  0  0  0  0  0  0  0  0  0  0
   -4.3822   -4.4787  -11.6530 H   0  0  0  0  0  0  0  0  0  0  0  0
   -5.2536   -3.0746  -11.0095 H   0  0  0  0  0  0  0  0  0  0  0  0
   -4.2335   -6.6002  -10.3085 H   0  0  0  0  0  0  0  0  0  0  0  0
   -5.1640   -6.8356   -8.8357 H   0  0  0  0  0  0  0  0  0  0  0  0
   -3.7548   -5.7661   -8.8233 H   0  0  0  0  0  0  0  0  0  0  0  0
   -6.4675   -5.8427  -11.5211 H   0  0  0  0  0  0  0  0  0  0  0  0
   -7.3388   -6.0774  -10.0112 H   0  0  0  0  0  0  0  0  0  0  0  0
   -7.3948   -4.5069  -10.8195 H   0  0  0  0  0  0  0  0  0  0  0  0
   -5.1513   -3.4378   -8.3659 H   0  0  0  0  0  0  0  0  0  0  0  0
   -5.7359   -2.7998   -5.3393 H   0  0  0  0  0  0  0  0  0  0  0  0
   -9.4500   -0.7003   -4.7889 H   0  0  0  0  0  0  0  0  0  0  0  0
  -10.5597   -2.2173   -6.3523 H   0  0  0  0  0  0  0  0  0  0  0  0
   -9.6344   -5.2753   -7.3861 H   0  0  0  0  0  0  0  0  0  0  0  0
   -9.0075   -4.2663   -8.7309 H   0  0  0  0  0  0  0  0  0  0  0  0
  -10.5333   -3.8739   -7.9605 H   0  0  0  0  0  0  0  0  0  0  0  0
   -6.2629    1.4885   -0.0420 H   0  0  0  0  0  0  0  0  0  0  0  0
   -7.9441    0.1293    1.1010 H   0  0  0  0  0  0  0  0  0  0  0  0
   -9.1153   -1.6889   -0.1140 H   0  0  0  0  0  0  0  0  0  0  0  0
   -8.6212   -2.1127   -2.4701 H   0  0  0  0  0  0  0  0  0  0  0  0
   -4.1136    2.5917   -2.8530 H   0  0  0  0  0  0  0  0  0  0  0  0
   -3.7013    4.2364   -0.6637 H   0  0  0  0  0  0  0  0  0  0  0  0
   -2.0732    4.1211    1.1807 H   0  0  0  0  0  0  0  0  0  0  0  0
   -1.9523   -0.1732    0.7756 H   0  0  0  0  0  0  0  0  0  0  0  0
   -3.5405   -0.0530   -1.0448 H   0  0  0  0  0  0  0  0  0  0  0  0
   -0.1383    1.1217    3.7387 H   0  0  0  0  0  0  0  0  0  0  0  0
   -1.4088    0.1812    2.9661 H   0  0  0  0  0  0  0  0  0  0  0  0
    0.9672    1.8400    1.0196 H   0  0  0  0  0  0  0  0  0  0  0  0
    1.8233   -0.1484   -0.4775 H   0  0  0  0  0  0  0  0  0  0  0  0
    2.9569    1.1624   -0.0263 H   0  0  0  0  0  0  0  0  0  0  0  0
    2.9367   -0.3709    0.9004 H   0  0  0  0  0  0  0  0  0  0  0  0
  1  2  1  0
  2  3  1  0
  2  4  1  0
  2  5  1  0
  5  6  1  0
  6  7  2  0
  6  8  2  0
  6  9  1  0
  9 10  2  0
 10 11  1  0
 11 12  2  0
 12 13  1  0
 13 14  2  0
 14 15  1  0
 11 16  1  0
 16 17  2  0
 17 18  1  0
 18 19  2  0
 19 20  1  0
 20 21  2  0
 20 22  1  0
 22 23  2  0
 23 24  1  0
 24 25  2  0
 19 26  1  0
 26 27  1  0
 27 28  2  0
 28 29  1  0
 29 30  2  0
 30 31  1  0
 31 32  2  0
 30 33  1  0
 33 34  1  0
 34 35  1  0
 35 36  2  0
 35 37  1  0
 37 38  1  0
 14  9  1  0
 21 16  1  0
 25 21  1  0
 32 27  1  0
  1 39  1  0
  1 40  1  0
  1 41  1  0
  3 42  1  0
  3 43  1  0
  3 44  1  0
  4 45  1  0
  4 46  1  0
  4 47  1  0
  5 48  1  0
 10 49  1  0
 12 50  1  0
 13 51  1  0
 15 52  1  0
 15 53  1  0
 15 54  1  0
 22 55  1  0
 23 56  1  0
 24 57  1  0
 25 58  1  0
 26 59  1  0
 28 60  1  0
 29 61  1  0
 31 62  1  0
 32 63  1  0
 34 64  1  0
 34 65  1  0
 37 66  1  0
 38 67  1  0
 38 68  1  0
 38 69  1  0
M  END
>  <mol_id>  (34) 
OSSK_374044

>  <drugclip_rank>  (34) 
34

>  <conformer>  (34) 
10

>  <align_rmsd>  (34) 
0.785

$$$$
V003-4478
     RDKit          3D

 74 77  0  0  0  0  0  0  0  0999 V2000
   -5.6493    1.1861   -6.8430 C   0  0  0  0  0  0  0  0  0  0  0  0
   -5.8137    0.4491   -8.1803 C   0  0  0  0  0  0  0  0  0  0  0  0
   -7.2198    0.3138   -8.5700 N   0  0  0  0  0  0  0  0  0  0  0  0
   -7.5694    0.4648   -9.9026 C   0  0  0  0  0  0  0  0  0  0  0  0
   -6.7401    0.6402  -10.7948 O   0  0  0  0  0  0  0  0  0  0  0  0
   -9.0398    0.4011  -10.2362 C   0  0  0  0  0  0  0  0  0  0  0  0
   -8.1880    0.2064   -7.4740 C   0  0  0  0  0  0  0  0  0  0  0  0
   -7.5859   -0.2636   -6.1372 C   0  0  0  0  0  0  0  0  0  0  0  0
   -6.3812    0.4944   -5.7697 N   0  0  0  0  0  0  0  0  0  0  0  0
   -6.1236    0.8881   -4.4668 C   0  0  0  0  0  0  0  0  0  0  0  0
   -5.3181    1.9433   -4.2742 N   0  0  0  0  0  0  0  0  0  0  0  0
   -5.0575    2.3287   -3.0185 C   0  0  0  0  0  0  0  0  0  0  0  0
   -5.5637    1.7472   -1.9247 N   0  0  0  0  0  0  0  0  0  0  0  0
   -6.3664    0.6781   -2.1042 C   0  0  0  0  0  0  0  0  0  0  0  0
   -6.6496    0.2124   -3.3782 C   0  0  0  0  0  0  0  0  0  0  0  0
   -6.8980   -0.0001   -0.8352 C   0  0  0  0  0  0  0  0  0  0  0  0
   -8.0903   -0.9486   -1.0854 C   0  0  0  0  0  0  0  0  0  0  0  0
   -5.7548   -0.8142   -0.2028 C   0  0  0  0  0  0  0  0  0  0  0  0
   -7.3785    1.0740    0.1657 C   0  0  0  0  0  0  0  0  0  0  0  0
   -4.0209    3.7609   -2.8616 S   0  0  0  0  0  0  0  0  0  0  0  0
   -3.7943    3.8616   -1.0627 C   0  0  0  0  0  0  0  0  0  0  0  0
   -2.7402    2.9355   -0.4973 C   0  0  0  0  0  0  0  0  0  0  0  0
   -3.0509    2.1078    0.5901 C   0  0  0  0  0  0  0  0  0  0  0  0
   -2.0781    1.2813    1.1605 C   0  0  0  0  0  0  0  0  0  0  0  0
   -1.4270    2.9246   -0.9934 C   0  0  0  0  0  0  0  0  0  0  0  0
   -0.4521    2.0933   -0.4290 C   0  0  0  0  0  0  0  0  0  0  0  0
   -0.7704    1.2753    0.6620 C   0  0  0  0  0  0  0  0  0  0  0  0
    0.2297    0.3774    1.3119 C   0  0  0  0  0  0  0  0  0  0  0  0
   -0.1399   -0.5459    2.0305 O   0  0  0  0  0  0  0  0  0  0  0  0
    1.5567    0.6638    1.0843 N   0  0  0  0  0  0  0  0  0  0  0  0
    2.6100   -0.0230    1.8058 C   0  0  0  0  0  0  0  0  0  0  0  0
    3.9920    0.2449    1.2124 C   0  0  0  0  0  0  0  0  0  0  0  0
    4.3852    1.6991    1.3216 C   0  0  0  0  0  0  0  0  0  0  0  0
    3.6982    2.5801    0.5484 N   0  0  0  0  0  0  0  0  0  0  0  0
    4.0493    3.8832    0.6300 C   0  0  0  0  0  0  0  0  0  0  0  0
    5.0532    4.3604    1.4547 C   0  0  0  0  0  0  0  0  0  0  0  0
    5.7398    3.4479    2.2455 C   0  0  0  0  0  0  0  0  0  0  0  0
    5.4059    2.0975    2.1800 C   0  0  0  0  0  0  0  0  0  0  0  0
   -6.0271    2.2116   -6.9390 H   0  0  0  0  0  0  0  0  0  0  0  0
   -4.5777    1.2318   -6.6132 H   0  0  0  0  0  0  0  0  0  0  0  0
   -5.2443    0.9660   -8.9580 H   0  0  0  0  0  0  0  0  0  0  0  0
   -5.4144   -0.5669   -8.0943 H   0  0  0  0  0  0  0  0  0  0  0  0
   -9.4294   -0.5994  -10.0352 H   0  0  0  0  0  0  0  0  0  0  0  0
   -9.1789    0.6158  -11.3001 H   0  0  0  0  0  0  0  0  0  0  0  0
   -9.5962    1.1483   -9.6669 H   0  0  0  0  0  0  0  0  0  0  0  0
   -8.6269    1.2047   -7.3502 H   0  0  0  0  0  0  0  0  0  0  0  0
   -8.9981   -0.4728   -7.7663 H   0  0  0  0  0  0  0  0  0  0  0  0
   -8.3753   -0.1682   -5.3855 H   0  0  0  0  0  0  0  0  0  0  0  0
   -7.3178   -1.3244   -6.2075 H   0  0  0  0  0  0  0  0  0  0  0  0
   -7.2476   -0.6740   -3.5269 H   0  0  0  0  0  0  0  0  0  0  0  0
   -7.8026   -1.8156   -1.6908 H   0  0  0  0  0  0  0  0  0  0  0  0
   -8.9112   -0.4333   -1.5986 H   0  0  0  0  0  0  0  0  0  0  0  0
   -8.4871   -1.3416   -0.1417 H   0  0  0  0  0  0  0  0  0  0  0  0
   -6.0747   -1.2769    0.7378 H   0  0  0  0  0  0  0  0  0  0  0  0
   -4.8833   -0.1890    0.0132 H   0  0  0  0  0  0  0  0  0  0  0  0
   -5.4258   -1.6133   -0.8762 H   0  0  0  0  0  0  0  0  0  0  0  0
   -6.5725    1.7611    0.4552 H   0  0  0  0  0  0  0  0  0  0  0  0
   -7.7607    0.6163    1.0849 H   0  0  0  0  0  0  0  0  0  0  0  0
   -8.1835    1.6813   -0.2710 H   0  0  0  0  0  0  0  0  0  0  0  0
   -4.7579    3.7372   -0.5555 H   0  0  0  0  0  0  0  0  0  0  0  0
   -3.4775    4.8864   -0.8374 H   0  0  0  0  0  0  0  0  0  0  0  0
   -4.0583    2.0969    1.0035 H   0  0  0  0  0  0  0  0  0  0  0  0
   -2.3442    0.6446    2.0025 H   0  0  0  0  0  0  0  0  0  0  0  0
   -1.1498    3.5608   -1.8320 H   0  0  0  0  0  0  0  0  0  0  0  0
    0.5414    2.0916   -0.8674 H   0  0  0  0  0  0  0  0  0  0  0  0
    1.8089    1.5850    0.7335 H   0  0  0  0  0  0  0  0  0  0  0  0
    2.5599    0.3014    2.8514 H   0  0  0  0  0  0  0  0  0  0  0  0
    2.3969   -1.0977    1.7812 H   0  0  0  0  0  0  0  0  0  0  0  0
    4.0110   -0.0413    0.1531 H   0  0  0  0  0  0  0  0  0  0  0  0
    4.7311   -0.3856    1.7218 H   0  0  0  0  0  0  0  0  0  0  0  0
    3.4839    4.5550   -0.0085 H   0  0  0  0  0  0  0  0  0  0  0  0
    5.2935    5.4170    1.4807 H   0  0  0  0  0  0  0  0  0  0  0  0
    6.5340    3.7840    2.9067 H   0  0  0  0  0  0  0  0  0  0  0  0
    5.9414    1.3746    2.7873 H   0  0  0  0  0  0  0  0  0  0  0  0
  1  2  1  0
  2  3  1  0
  3  4  1  0
  4  5  2  0
  4  6  1  0
  3  7  1  0
  7  8  1  0
  8  9  1  0
  9 10  1  0
 10 11  2  0
 11 12  1  0
 12 13  2  0
 13 14  1  0
 14 15  2  0
 14 16  1  0
 16 17  1  0
 16 18  1  0
 16 19  1  0
 12 20  1  0
 20 21  1  0
 21 22  1  0
 22 23  2  0
 23 24  1  0
 22 25  1  0
 25 26  2  0
 26 27  1  0
 27 28  1  0
 28 29  2  0
 28 30  1  0
 30 31  1  0
 31 32  1  0
 32 33  1  0
 33 34  2  0
 34 35  1  0
 35 36  2  0
 36 37  1  0
 37 38  2  0
  9  1  1  0
 15 10  1  0
 27 24  2  0
 38 33  1  0
  1 39  1  0
  1 40  1  0
  2 41  1  0
  2 42  1  0
  6 43  1  0
  6 44  1  0
  6 45  1  0
  7 46  1  0
  7 47  1  0
  8 48  1  0
  8 49  1  0
 15 50  1  0
 17 51  1  0
 17 52  1  0
 17 53  1  0
 18 54  1  0
 18 55  1  0
 18 56  1  0
 19 57  1  0
 19 58  1  0
 19 59  1  0
 21 60  1  0
 21 61  1  0
 23 62  1  0
 24 63  1  0
 25 64  1  0
 26 65  1  0
 30 66  1  0
 31 67  1  0
 31 68  1  0
 32 69  1  0
 32 70  1  0
 35 71  1  0
 36 72  1  0
 37 73  1  0
 38 74  1  0
M  END
>  <mol_id>  (35) 
V003-4478

>  <drugclip_rank>  (35) 
35

>  <conformer>  (35) 
34

>  <align_rmsd>  (35) 
1.271

$$$$
Z26537555
     RDKit          3D

 68 72  0  0  0  0  0  0  0  0999 V2000
   -5.6181    0.3435   -1.9366 C   0  0  0  0  0  0  0  0  0  0  0  0
   -6.6937   -0.4953   -2.2310 C   0  0  0  0  0  0  0  0  0  0  0  0
   -7.9275   -0.2928   -1.6106 C   0  0  0  0  0  0  0  0  0  0  0  0
   -8.0906    0.7537   -0.7024 C   0  0  0  0  0  0  0  0  0  0  0  0
   -7.0168    1.5937   -0.4052 C   0  0  0  0  0  0  0  0  0  0  0  0
   -5.7773    1.3745   -1.0074 C   0  0  0  0  0  0  0  0  0  0  0  0
   -4.7602    2.2482   -0.6975 O   0  0  0  0  0  0  0  0  0  0  0  0
   -3.5538    1.6989   -0.3258 C   0  0  0  0  0  0  0  0  0  0  0  0
   -3.4482    0.6511    0.5898 C   0  0  0  0  0  0  0  0  0  0  0  0
   -2.1871    0.1701    0.9513 C   0  0  0  0  0  0  0  0  0  0  0  0
   -2.4037    2.2820   -0.8576 C   0  0  0  0  0  0  0  0  0  0  0  0
   -1.1409    1.7983   -0.5002 C   0  0  0  0  0  0  0  0  0  0  0  0
   -1.0234    0.7427    0.4146 C   0  0  0  0  0  0  0  0  0  0  0  0
    0.2977    0.1855    0.8442 C   0  0  0  0  0  0  0  0  0  0  0  0
    0.3290   -0.9349    1.3448 O   0  0  0  0  0  0  0  0  0  0  0  0
    1.3797    1.0236    0.6871 N   0  0  0  0  0  0  0  0  0  0  0  0
    2.7348    0.7573    0.9748 C   0  0  0  0  0  0  0  0  0  0  0  0
    3.2290   -0.5033    1.3037 C   0  0  0  0  0  0  0  0  0  0  0  0
    4.5851   -0.6467    1.6103 C   0  0  0  0  0  0  0  0  0  0  0  0
    5.2328   -2.2475    2.0256 S   0  0  0  0  0  0  0  0  0  0  0  0
    6.5950   -2.2968    1.5357 O   0  0  0  0  0  0  0  0  0  0  0  0
    4.2735   -3.2550    1.6324 O   0  0  0  0  0  0  0  0  0  0  0  0
    5.2930   -2.1989    3.7275 N   0  0  0  0  0  0  0  0  0  0  0  0
    3.9881   -2.0964    4.4584 C   0  0  0  0  0  0  0  0  0  0  0  0
    3.3132   -3.4625    4.6336 C   0  0  0  0  0  0  0  0  0  0  0  0
    4.1931   -4.4022    5.2691 O   0  0  0  0  0  0  0  0  0  0  0  0
    5.3819   -4.5821    4.4867 C   0  0  0  0  0  0  0  0  0  0  0  0
    6.1445   -3.2612    4.3522 C   0  0  0  0  0  0  0  0  0  0  0  0
    5.4563    0.4449    1.5542 C   0  0  0  0  0  0  0  0  0  0  0  0
    4.9652    1.7018    1.1998 C   0  0  0  0  0  0  0  0  0  0  0  0
    3.6053    1.8743    0.9027 C   0  0  0  0  0  0  0  0  0  0  0  0
    3.0580    3.1366    0.5478 N   0  0  0  0  0  0  0  0  0  0  0  0
    3.5813    3.6318   -0.7388 C   0  0  0  0  0  0  0  0  0  0  0  0
    3.0384    5.0345   -0.9982 C   0  0  0  0  0  0  0  0  0  0  0  0
    3.4738    6.0204    0.0874 C   0  0  0  0  0  0  0  0  0  0  0  0
    3.9049    5.3269    1.3797 C   0  0  0  0  0  0  0  0  0  0  0  0
    3.0517    4.0963    1.6725 C   0  0  0  0  0  0  0  0  0  0  0  0
   -4.6649    0.1917   -2.4363 H   0  0  0  0  0  0  0  0  0  0  0  0
   -6.5710   -1.3053   -2.9443 H   0  0  0  0  0  0  0  0  0  0  0  0
   -8.7645   -0.9480   -1.8403 H   0  0  0  0  0  0  0  0  0  0  0  0
   -9.0547    0.9154   -0.2271 H   0  0  0  0  0  0  0  0  0  0  0  0
   -7.1435    2.4114    0.2982 H   0  0  0  0  0  0  0  0  0  0  0  0
   -4.3356    0.2063    1.0324 H   0  0  0  0  0  0  0  0  0  0  0  0
   -2.1143   -0.6554    1.6562 H   0  0  0  0  0  0  0  0  0  0  0  0
   -2.4914    3.1064   -1.5597 H   0  0  0  0  0  0  0  0  0  0  0  0
   -0.2685    2.2441   -0.9699 H   0  0  0  0  0  0  0  0  0  0  0  0
    1.2366    2.0018    0.4519 H   0  0  0  0  0  0  0  0  0  0  0  0
    2.5806   -1.3732    1.3265 H   0  0  0  0  0  0  0  0  0  0  0  0
    3.3123   -1.3892    3.9728 H   0  0  0  0  0  0  0  0  0  0  0  0
    4.2149   -1.6778    5.4470 H   0  0  0  0  0  0  0  0  0  0  0  0
    2.9680   -3.8809    3.6831 H   0  0  0  0  0  0  0  0  0  0  0  0
    2.4338   -3.3542    5.2763 H   0  0  0  0  0  0  0  0  0  0  0  0
    5.1157   -5.0048    3.5122 H   0  0  0  0  0  0  0  0  0  0  0  0
    6.0069   -5.3162    5.0055 H   0  0  0  0  0  0  0  0  0  0  0  0
    6.4325   -2.8999    5.3478 H   0  0  0  0  0  0  0  0  0  0  0  0
    7.0721   -3.4008    3.7885 H   0  0  0  0  0  0  0  0  0  0  0  0
    6.5131    0.3203    1.7819 H   0  0  0  0  0  0  0  0  0  0  0  0
    5.6499    2.5439    1.1605 H   0  0  0  0  0  0  0  0  0  0  0  0
    3.2465    2.9674   -1.5457 H   0  0  0  0  0  0  0  0  0  0  0  0
    4.6785    3.6541   -0.7590 H   0  0  0  0  0  0  0  0  0  0  0  0
    3.3646    5.3942   -1.9805 H   0  0  0  0  0  0  0  0  0  0  0  0
    1.9421    4.9963   -1.0268 H   0  0  0  0  0  0  0  0  0  0  0  0
    2.6451    6.7073    0.2923 H   0  0  0  0  0  0  0  0  0  0  0  0
    4.3021    6.6382   -0.2778 H   0  0  0  0  0  0  0  0  0  0  0  0
    4.9580    5.0307    1.2955 H   0  0  0  0  0  0  0  0  0  0  0  0
    3.8458    6.0343    2.2149 H   0  0  0  0  0  0  0  0  0  0  0  0
    2.0127    4.4102    1.8313 H   0  0  0  0  0  0  0  0  0  0  0  0
    3.3784    3.6375    2.6145 H   0  0  0  0  0  0  0  0  0  0  0  0
  1  2  2  0
  2  3  1  0
  3  4  2  0
  4  5  1  0
  5  6  2  0
  6  7  1  0
  7  8  1  0
  8  9  2  0
  9 10  1  0
  8 11  1  0
 11 12  2  0
 12 13  1  0
 13 14  1  0
 14 15  2  0
 14 16  1  0
 16 17  1  0
 17 18  2  0
 18 19  1  0
 19 20  1  0
 20 21  2  0
 20 22  2  0
 20 23  1  0
 23 24  1  0
 24 25  1  0
 25 26  1  0
 26 27  1  0
 27 28  1  0
 19 29  2  0
 29 30  1  0
 30 31  2  0
 31 32  1  0
 32 33  1  0
 33 34  1  0
 34 35  1  0
 35 36  1  0
 36 37  1  0
  6  1  1  0
 13 10  2  0
 31 17  1  0
 28 23  1  0
 37 32  1  0
  1 38  1  0
  2 39  1  0
  3 40  1  0
  4 41  1  0
  5 42  1  0
  9 43  1  0
 10 44  1  0
 11 45  1  0
 12 46  1  0
 16 47  1  0
 18 48  1  0
 24 49  1  0
 24 50  1  0
 25 51  1  0
 25 52  1  0
 27 53  1  0
 27 54  1  0
 28 55  1  0
 28 56  1  0
 29 57  1  0
 30 58  1  0
 33 59  1  0
 33 60  1  0
 34 61  1  0
 34 62  1  0
 35 63  1  0
 35 64  1  0
 36 65  1  0
 36 66  1  0
 37 67  1  0
 37 68  1  0
M  END
>  <mol_id>  (36) 
Z26537555

>  <drugclip_rank>  (36) 
36

>  <conformer>  (36) 
9

>  <align_rmsd>  (36) 
0.654

$$$$
E852-4754
     RDKit          3D

 79 82  0  0  0  0  0  0  0  0999 V2000
    9.4985    1.1434    0.8515 C   0  0  0  0  0  0  0  0  0  0  0  0
   10.2653    2.1410    1.7181 C   0  0  0  0  0  0  0  0  0  0  0  0
    9.2450    3.1762    2.1916 C   0  0  0  0  0  0  0  0  0  0  0  0
    7.9910    2.9184    1.3700 C   0  0  0  0  0  0  0  0  0  0  0  0
    8.0244    1.4111    1.1472 C   0  0  0  0  0  0  0  0  0  0  0  0
    7.1515    0.9893    0.0694 N   0  0  0  0  0  0  0  0  0  0  0  0
    6.7701   -0.3354   -0.0532 C   0  0  0  0  0  0  0  0  0  0  0  0
    7.1142   -1.1813    0.7713 O   0  0  0  0  0  0  0  0  0  0  0  0
    5.8853   -0.6853   -1.2945 C   0  0  0  0  0  0  0  0  0  0  0  0
    6.6521   -0.3127   -2.5813 C   0  0  0  0  0  0  0  0  0  0  0  0
    5.5554   -2.1537   -1.2529 N   0  0  0  0  0  0  0  0  0  0  0  0
    4.5100   -2.6375   -0.4409 C   0  0  0  0  0  0  0  0  0  0  0  0
    4.3248   -3.8344   -0.2430 O   0  0  0  0  0  0  0  0  0  0  0  0
    6.5670   -3.1426   -1.6450 C   0  0  0  0  0  0  0  0  0  0  0  0
    6.1882   -3.8369   -2.9547 C   0  0  0  0  0  0  0  0  0  0  0  0
    7.2385   -4.8410   -3.4318 C   0  0  0  0  0  0  0  0  0  0  0  0
    7.3714   -6.0533   -2.5228 C   0  0  0  0  0  0  0  0  0  0  0  0
    4.6029    0.1678   -1.2684 C   0  0  0  0  0  0  0  0  0  0  0  0
    3.7088   -0.3237   -0.2466 N   0  0  0  0  0  0  0  0  0  0  0  0
    3.6505   -1.6288    0.1143 C   0  0  0  0  0  0  0  0  0  0  0  0
    2.8181    0.4776    0.3571 N   0  0  0  0  0  0  0  0  0  0  0  0
    2.1462   -0.3676    1.1741 C   0  0  0  0  0  0  0  0  0  0  0  0
    2.6344   -1.6963    1.0425 C   0  0  0  0  0  0  0  0  0  0  0  0
    1.0509    0.0931    2.0429 C   0  0  0  0  0  0  0  0  0  0  0  0
    0.4122   -0.6605    2.7708 O   0  0  0  0  0  0  0  0  0  0  0  0
    0.8115    1.4445    1.9342 N   0  0  0  0  0  0  0  0  0  0  0  0
   -0.3493    2.0730    2.5055 C   0  0  0  0  0  0  0  0  0  0  0  0
   -1.4683    2.1479    1.4992 C   0  0  0  0  0  0  0  0  0  0  0  0
   -1.6435    3.2851    0.7030 C   0  0  0  0  0  0  0  0  0  0  0  0
   -2.6652    3.3268   -0.2497 C   0  0  0  0  0  0  0  0  0  0  0  0
   -3.5196    2.2363   -0.4336 C   0  0  0  0  0  0  0  0  0  0  0  0
   -3.3475    1.1008    0.3559 C   0  0  0  0  0  0  0  0  0  0  0  0
   -2.3268    1.0558    1.3126 C   0  0  0  0  0  0  0  0  0  0  0  0
   -4.4660    2.4182   -1.4022 O   0  0  0  0  0  0  0  0  0  0  0  0
   -5.3257    1.3305   -1.7403 C   0  0  0  0  0  0  0  0  0  0  0  0
   -6.5713    1.2920   -0.8541 C   0  0  0  0  0  0  0  0  0  0  0  0
   -7.3830    2.5868   -0.9401 C   0  0  0  0  0  0  0  0  0  0  0  0
   -8.6381    2.5126   -0.0848 C   0  0  0  0  0  0  0  0  0  0  0  0
    9.7823    0.1084    1.0679 H   0  0  0  0  0  0  0  0  0  0  0  0
    9.7230    1.3268   -0.2071 H   0  0  0  0  0  0  0  0  0  0  0  0
   10.7269    1.6426    2.5778 H   0  0  0  0  0  0  0  0  0  0  0  0
   11.0698    2.6111    1.1425 H   0  0  0  0  0  0  0  0  0  0  0  0
    9.0333    3.0228    3.2566 H   0  0  0  0  0  0  0  0  0  0  0  0
    9.6100    4.2006    2.0719 H   0  0  0  0  0  0  0  0  0  0  0  0
    8.0452    3.4613    0.4173 H   0  0  0  0  0  0  0  0  0  0  0  0
    7.0820    3.2430    1.8872 H   0  0  0  0  0  0  0  0  0  0  0  0
    7.7325    0.8923    2.0698 H   0  0  0  0  0  0  0  0  0  0  0  0
    7.0565    1.6189   -0.7154 H   0  0  0  0  0  0  0  0  0  0  0  0
    7.6785   -0.6916   -2.5755 H   0  0  0  0  0  0  0  0  0  0  0  0
    6.7235    0.7731   -2.7090 H   0  0  0  0  0  0  0  0  0  0  0  0
    6.1489   -0.7090   -3.4693 H   0  0  0  0  0  0  0  0  0  0  0  0
    7.5465   -2.6636   -1.7299 H   0  0  0  0  0  0  0  0  0  0  0  0
    6.6633   -3.8807   -0.8406 H   0  0  0  0  0  0  0  0  0  0  0  0
    6.0533   -3.0814   -3.7379 H   0  0  0  0  0  0  0  0  0  0  0  0
    5.2196   -4.3408   -2.8477 H   0  0  0  0  0  0  0  0  0  0  0  0
    8.2126   -4.3472   -3.5295 H   0  0  0  0  0  0  0  0  0  0  0  0
    6.9569   -5.1884   -4.4331 H   0  0  0  0  0  0  0  0  0  0  0  0
    8.0635   -6.7785   -2.9627 H   0  0  0  0  0  0  0  0  0  0  0  0
    7.7630   -5.7779   -1.5396 H   0  0  0  0  0  0  0  0  0  0  0  0
    6.4056   -6.5493   -2.3841 H   0  0  0  0  0  0  0  0  0  0  0  0
    4.7949    1.2280   -1.0719 H   0  0  0  0  0  0  0  0  0  0  0  0
    4.0515    0.0859   -2.2139 H   0  0  0  0  0  0  0  0  0  0  0  0
    2.2857   -2.5798    1.5607 H   0  0  0  0  0  0  0  0  0  0  0  0
    1.3243    1.9075    1.1907 H   0  0  0  0  0  0  0  0  0  0  0  0
   -0.0547    3.0793    2.8238 H   0  0  0  0  0  0  0  0  0  0  0  0
   -0.6781    1.5316    3.3998 H   0  0  0  0  0  0  0  0  0  0  0  0
   -0.9871    4.1450    0.8143 H   0  0  0  0  0  0  0  0  0  0  0  0
   -2.7935    4.2172   -0.8609 H   0  0  0  0  0  0  0  0  0  0  0  0
   -3.9858    0.2296    0.2605 H   0  0  0  0  0  0  0  0  0  0  0  0
   -2.1987    0.1548    1.9119 H   0  0  0  0  0  0  0  0  0  0  0  0
   -5.6375    1.4957   -2.7783 H   0  0  0  0  0  0  0  0  0  0  0  0
   -4.7967    0.3707   -1.7453 H   0  0  0  0  0  0  0  0  0  0  0  0
   -7.1960    0.4440   -1.1576 H   0  0  0  0  0  0  0  0  0  0  0  0
   -6.2844    1.1272    0.1902 H   0  0  0  0  0  0  0  0  0  0  0  0
   -6.7761    3.4361   -0.6068 H   0  0  0  0  0  0  0  0  0  0  0  0
   -7.6674    2.7799   -1.9810 H   0  0  0  0  0  0  0  0  0  0  0  0
   -8.3856    2.3510    0.9682 H   0  0  0  0  0  0  0  0  0  0  0  0
   -9.2030    3.4471   -0.1583 H   0  0  0  0  0  0  0  0  0  0  0  0
   -9.2885    1.6954   -0.4123 H   0  0  0  0  0  0  0  0  0  0  0  0
  1  2  1  0
  2  3  1  0
  3  4  1  0
  4  5  1  0
  5  6  1  0
  6  7  1  0
  7  8  2  0
  7  9  1  0
  9 10  1  0
  9 11  1  0
 11 12  1  0
 12 13  2  0
 11 14  1  0
 14 15  1  0
 15 16  1  0
 16 17  1  0
  9 18  1  0
 18 19  1  0
 19 20  1  0
 19 21  1  0
 21 22  2  0
 22 23  1  0
 22 24  1  0
 24 25  2  0
 24 26  1  0
 26 27  1  0
 27 28  1  0
 28 29  2  0
 29 30  1  0
 30 31  2  0
 31 32  1  0
 32 33  2  0
 31 34  1  0
 34 35  1  0
 35 36  1  0
 36 37  1  0
 37 38  1  0
  5  1  1  0
 20 12  1  0
 23 20  2  0
 33 28  1  0
  1 39  1  0
  1 40  1  0
  2 41  1  0
  2 42  1  0
  3 43  1  0
  3 44  1  0
  4 45  1  0
  4 46  1  0
  5 47  1  0
  6 48  1  0
 10 49  1  0
 10 50  1  0
 10 51  1  0
 14 52  1  0
 14 53  1  0
 15 54  1  0
 15 55  1  0
 16 56  1  0
 16 57  1  0
 17 58  1  0
 17 59  1  0
 17 60  1  0
 18 61  1  0
 18 62  1  0
 23 63  1  0
 26 64  1  0
 27 65  1  0
 27 66  1  0
 29 67  1  0
 30 68  1  0
 32 69  1  0
 33 70  1  0
 35 71  1  0
 35 72  1  0
 36 73  1  0
 36 74  1  0
 37 75  1  0
 37 76  1  0
 38 77  1  0
 38 78  1  0
 38 79  1  0
M  END
>  <mol_id>  (37) 
E852-4754

>  <drugclip_rank>  (37) 
37

>  <conformer>  (37) 
15

>  <align_rmsd>  (37) 
1.177

$$$$
OSSK_594864
     RDKit          3D

 74 77  0  0  0  0  0  0  0  0999 V2000
   -5.5641   -0.8864   -2.0734 C   0  0  0  0  0  0  0  0  0  0  0  0
   -5.6307    0.4646   -1.3540 C   0  0  0  0  0  0  0  0  0  0  0  0
   -6.8612    0.5252   -0.4456 C   0  0  0  0  0  0  0  0  0  0  0  0
   -4.3806    0.8021   -0.5600 C   0  0  0  0  0  0  0  0  0  0  0  0
   -3.9518    2.1364   -0.4939 C   0  0  0  0  0  0  0  0  0  0  0  0
   -2.8313    2.4904    0.2637 C   0  0  0  0  0  0  0  0  0  0  0  0
   -2.1257    1.5245    0.9813 C   0  0  0  0  0  0  0  0  0  0  0  0
   -2.5229    0.1897    0.8978 C   0  0  0  0  0  0  0  0  0  0  0  0
   -3.6485   -0.1650    0.1452 C   0  0  0  0  0  0  0  0  0  0  0  0
   -1.0744    2.0032    1.7140 O   0  0  0  0  0  0  0  0  0  0  0  0
   -0.6317    1.1946    2.7978 C   0  0  0  0  0  0  0  0  0  0  0  0
    0.5664    0.3209    2.4296 C   0  0  0  0  0  0  0  0  0  0  0  0
    0.5151   -0.9027    2.5111 O   0  0  0  0  0  0  0  0  0  0  0  0
    1.6599    1.0765    2.0673 N   0  0  0  0  0  0  0  0  0  0  0  0
    2.9480    0.6575    1.6859 C   0  0  0  0  0  0  0  0  0  0  0  0
    3.8941    1.6988    1.5072 C   0  0  0  0  0  0  0  0  0  0  0  0
    5.1957    1.3698    1.1066 C   0  0  0  0  0  0  0  0  0  0  0  0
    5.5562    0.0336    0.8966 C   0  0  0  0  0  0  0  0  0  0  0  0
    4.6166   -0.9912    1.0816 C   0  0  0  0  0  0  0  0  0  0  0  0
    3.3093   -0.6725    1.4776 C   0  0  0  0  0  0  0  0  0  0  0  0
    4.9549   -2.4274    0.8718 C   0  0  0  0  0  0  0  0  0  0  0  0
    4.1452   -3.3362    0.9762 O   0  0  0  0  0  0  0  0  0  0  0  0
    6.2703   -2.5780    0.5695 O   0  0  0  0  0  0  0  0  0  0  0  0
    6.6552   -3.9415    0.3503 C   0  0  0  0  0  0  0  0  0  0  0  0
    8.1644   -3.9969    0.1753 C   0  0  0  0  0  0  0  0  0  0  0  0
    3.4769    3.0240    1.7776 N   0  0  0  0  0  0  0  0  0  0  0  0
    3.5417    3.9186    0.5915 C   0  0  0  0  0  0  0  0  0  0  0  0
    2.8711    5.2618    0.9459 C   0  0  0  0  0  0  0  0  0  0  0  0
    4.1610    3.6057    2.9593 C   0  0  0  0  0  0  0  0  0  0  0  0
    3.5148    4.9648    3.3130 C   0  0  0  0  0  0  0  0  0  0  0  0
    3.4828    5.8597    2.1426 N   0  0  0  0  0  0  0  0  0  0  0  0
    4.2906    6.9798    1.9886 C   0  0  0  0  0  0  0  0  0  0  0  0
    4.5325    7.5013    0.9003 O   0  0  0  0  0  0  0  0  0  0  0  0
    4.8439    7.6252    3.1976 C   0  0  0  0  0  0  0  0  0  0  0  0
    3.9775    8.1082    4.1870 C   0  0  0  0  0  0  0  0  0  0  0  0
    4.5020    8.7395    5.3132 C   0  0  0  0  0  0  0  0  0  0  0  0
    5.8849    8.8930    5.4420 C   0  0  0  0  0  0  0  0  0  0  0  0
    6.7447    8.4348    4.4412 C   0  0  0  0  0  0  0  0  0  0  0  0
    6.2248    7.8046    3.3109 C   0  0  0  0  0  0  0  0  0  0  0  0
   -6.4317   -1.0169   -2.7328 H   0  0  0  0  0  0  0  0  0  0  0  0
   -5.5698   -1.7271   -1.3701 H   0  0  0  0  0  0  0  0  0  0  0  0
   -4.6615   -0.9639   -2.6913 H   0  0  0  0  0  0  0  0  0  0  0  0
   -5.7545    1.2246   -2.1409 H   0  0  0  0  0  0  0  0  0  0  0  0
   -7.7784    0.3520   -1.0201 H   0  0  0  0  0  0  0  0  0  0  0  0
   -6.8163   -0.2283    0.3504 H   0  0  0  0  0  0  0  0  0  0  0  0
   -6.9433    1.5057    0.0381 H   0  0  0  0  0  0  0  0  0  0  0  0
   -4.4932    2.9146   -1.0283 H   0  0  0  0  0  0  0  0  0  0  0  0
   -2.5183    3.5324    0.3090 H   0  0  0  0  0  0  0  0  0  0  0  0
   -1.9800   -0.6054    1.4039 H   0  0  0  0  0  0  0  0  0  0  0  0
   -3.9408   -1.2129    0.1241 H   0  0  0  0  0  0  0  0  0  0  0  0
   -1.4261    0.5895    3.2497 H   0  0  0  0  0  0  0  0  0  0  0  0
   -0.3028    1.8810    3.5886 H   0  0  0  0  0  0  0  0  0  0  0  0
    1.5840    2.0944    2.1047 H   0  0  0  0  0  0  0  0  0  0  0  0
    5.9423    2.1464    0.9631 H   0  0  0  0  0  0  0  0  0  0  0  0
    6.5753   -0.1922    0.5911 H   0  0  0  0  0  0  0  0  0  0  0  0
    2.5886   -1.4749    1.6068 H   0  0  0  0  0  0  0  0  0  0  0  0
    6.1635   -4.3170   -0.5550 H   0  0  0  0  0  0  0  0  0  0  0  0
    6.3693   -4.5631    1.2075 H   0  0  0  0  0  0  0  0  0  0  0  0
    8.4812   -5.0077   -0.1105 H   0  0  0  0  0  0  0  0  0  0  0  0
    8.6564   -3.7323    1.1172 H   0  0  0  0  0  0  0  0  0  0  0  0
    8.5034   -3.2815   -0.5775 H   0  0  0  0  0  0  0  0  0  0  0  0
    3.0114    3.4633   -0.2507 H   0  0  0  0  0  0  0  0  0  0  0  0
    4.5802    4.0972    0.2947 H   0  0  0  0  0  0  0  0  0  0  0  0
    2.9238    5.9440    0.0931 H   0  0  0  0  0  0  0  0  0  0  0  0
    1.8137    5.1005    1.1803 H   0  0  0  0  0  0  0  0  0  0  0  0
    4.0635    2.9351    3.8213 H   0  0  0  0  0  0  0  0  0  0  0  0
    5.2270    3.7527    2.7555 H   0  0  0  0  0  0  0  0  0  0  0  0
    2.4752    4.8181    3.6285 H   0  0  0  0  0  0  0  0  0  0  0  0
    4.0600    5.4061    4.1509 H   0  0  0  0  0  0  0  0  0  0  0  0
    2.9026    8.0141    4.0651 H   0  0  0  0  0  0  0  0  0  0  0  0
    3.8368    9.1368    6.0740 H   0  0  0  0  0  0  0  0  0  0  0  0
    6.2925    9.3978    6.3143 H   0  0  0  0  0  0  0  0  0  0  0  0
    7.8176    8.5884    4.5392 H   0  0  0  0  0  0  0  0  0  0  0  0
    6.8874    7.4665    2.5205 H   0  0  0  0  0  0  0  0  0  0  0  0
  1  2  1  0
  2  3  1  0
  2  4  1  0
  4  5  2  0
  5  6  1  0
  6  7  2  0
  7  8  1  0
  8  9  2  0
  7 10  1  0
 10 11  1  0
 11 12  1  0
 12 13  2  0
 12 14  1  0
 14 15  1  0
 15 16  1  0
 16 17  2  0
 17 18  1  0
 18 19  2  0
 19 20  1  0
 19 21  1  0
 21 22  2  0
 21 23  1  0
 23 24  1  0
 24 25  1  0
 16 26  1  0
 26 27  1  0
 27 28  1  0
 26 29  1  0
 29 30  1  0
 30 31  1  0
 31 32  1  0
 32 33  2  0
 32 34  1  0
 34 35  2  0
 35 36  1  0
 36 37  2  0
 37 38  1  0
 38 39  2  0
  9  4  1  0
 20 15  2  0
 31 28  1  0
 39 34  1  0
  1 40  1  0
  1 41  1  0
  1 42  1  0
  2 43  1  0
  3 44  1  0
  3 45  1  0
  3 46  1  0
  5 47  1  0
  6 48  1  0
  8 49  1  0
  9 50  1  0
 11 51  1  0
 11 52  1  0
 14 53  1  0
 17 54  1  0
 18 55  1  0
 20 56  1  0
 24 57  1  0
 24 58  1  0
 25 59  1  0
 25 60  1  0
 25 61  1  0
 27 62  1  0
 27 63  1  0
 28 64  1  0
 28 65  1  0
 29 66  1  0
 29 67  1  0
 30 68  1  0
 30 69  1  0
 35 70  1  0
 36 71  1  0
 37 72  1  0
 38 73  1  0
 39 74  1  0
M  END
>  <mol_id>  (38) 
OSSK_594864

>  <drugclip_rank>  (38) 
38

>  <conformer>  (38) 
10

>  <align_rmsd>  (38) 
0.696

$$$$
STK189045
     RDKit          3D

 74 77  0  0  0  0  0  0  0  0999 V2000
   -5.5641   -0.8864   -2.0734 C   0  0  0  0  0  0  0  0  0  0  0  0
   -5.6307    0.4646   -1.3540 C   0  0  0  0  0  0  0  0  0  0  0  0
   -6.8612    0.5252   -0.4456 C   0  0  0  0  0  0  0  0  0  0  0  0
   -4.3806    0.8021   -0.5600 C   0  0  0  0  0  0  0  0  0  0  0  0
   -3.9518    2.1364   -0.4939 C   0  0  0  0  0  0  0  0  0  0  0  0
   -2.8313    2.4904    0.2637 C   0  0  0  0  0  0  0  0  0  0  0  0
   -2.1257    1.5245    0.9813 C   0  0  0  0  0  0  0  0  0  0  0  0
   -2.5229    0.1897    0.8978 C   0  0  0  0  0  0  0  0  0  0  0  0
   -3.6485   -0.1650    0.1452 C   0  0  0  0  0  0  0  0  0  0  0  0
   -1.0744    2.0032    1.7140 O   0  0  0  0  0  0  0  0  0  0  0  0
   -0.6317    1.1946    2.7978 C   0  0  0  0  0  0  0  0  0  0  0  0
    0.5664    0.3209    2.4296 C   0  0  0  0  0  0  0  0  0  0  0  0
    0.5151   -0.9027    2.5111 O   0  0  0  0  0  0  0  0  0  0  0  0
    1.6599    1.0765    2.0673 N   0  0  0  0  0  0  0  0  0  0  0  0
    2.9480    0.6575    1.6859 C   0  0  0  0  0  0  0  0  0  0  0  0
    3.8941    1.6988    1.5072 C   0  0  0  0  0  0  0  0  0  0  0  0
    5.1957    1.3698    1.1066 C   0  0  0  0  0  0  0  0  0  0  0  0
    5.5562    0.0336    0.8966 C   0  0  0  0  0  0  0  0  0  0  0  0
    4.6166   -0.9912    1.0816 C   0  0  0  0  0  0  0  0  0  0  0  0
    3.3093   -0.6725    1.4776 C   0  0  0  0  0  0  0  0  0  0  0  0
    4.9549   -2.4274    0.8718 C   0  0  0  0  0  0  0  0  0  0  0  0
    4.1452   -3.3362    0.9762 O   0  0  0  0  0  0  0  0  0  0  0  0
    6.2703   -2.5780    0.5695 O   0  0  0  0  0  0  0  0  0  0  0  0
    6.6552   -3.9415    0.3503 C   0  0  0  0  0  0  0  0  0  0  0  0
    8.1644   -3.9969    0.1753 C   0  0  0  0  0  0  0  0  0  0  0  0
    3.4769    3.0240    1.7776 N   0  0  0  0  0  0  0  0  0  0  0  0
    3.5417    3.9186    0.5915 C   0  0  0  0  0  0  0  0  0  0  0  0
    2.8711    5.2618    0.9459 C   0  0  0  0  0  0  0  0  0  0  0  0
    4.1610    3.6057    2.9593 C   0  0  0  0  0  0  0  0  0  0  0  0
    3.5148    4.9648    3.3130 C   0  0  0  0  0  0  0  0  0  0  0  0
    3.4828    5.8597    2.1426 N   0  0  0  0  0  0  0  0  0  0  0  0
    4.2906    6.9798    1.9886 C   0  0  0  0  0  0  0  0  0  0  0  0
    4.5325    7.5013    0.9003 O   0  0  0  0  0  0  0  0  0  0  0  0
    4.8439    7.6252    3.1976 C   0  0  0  0  0  0  0  0  0  0  0  0
    3.9775    8.1082    4.1870 C   0  0  0  0  0  0  0  0  0  0  0  0
    4.5020    8.7395    5.3132 C   0  0  0  0  0  0  0  0  0  0  0  0
    5.8849    8.8930    5.4420 C   0  0  0  0  0  0  0  0  0  0  0  0
    6.7447    8.4348    4.4412 C   0  0  0  0  0  0  0  0  0  0  0  0
    6.2248    7.8046    3.3109 C   0  0  0  0  0  0  0  0  0  0  0  0
   -6.4317   -1.0169   -2.7328 H   0  0  0  0  0  0  0  0  0  0  0  0
   -5.5698   -1.7271   -1.3701 H   0  0  0  0  0  0  0  0  0  0  0  0
   -4.6615   -0.9639   -2.6913 H   0  0  0  0  0  0  0  0  0  0  0  0
   -5.7545    1.2246   -2.1409 H   0  0  0  0  0  0  0  0  0  0  0  0
   -7.7784    0.3520   -1.0201 H   0  0  0  0  0  0  0  0  0  0  0  0
   -6.8163   -0.2283    0.3504 H   0  0  0  0  0  0  0  0  0  0  0  0
   -6.9433    1.5057    0.0381 H   0  0  0  0  0  0  0  0  0  0  0  0
   -4.4932    2.9146   -1.0283 H   0  0  0  0  0  0  0  0  0  0  0  0
   -2.5183    3.5324    0.3090 H   0  0  0  0  0  0  0  0  0  0  0  0
   -1.9800   -0.6054    1.4039 H   0  0  0  0  0  0  0  0  0  0  0  0
   -3.9408   -1.2129    0.1241 H   0  0  0  0  0  0  0  0  0  0  0  0
   -1.4261    0.5895    3.2497 H   0  0  0  0  0  0  0  0  0  0  0  0
   -0.3028    1.8810    3.5886 H   0  0  0  0  0  0  0  0  0  0  0  0
    1.5840    2.0944    2.1047 H   0  0  0  0  0  0  0  0  0  0  0  0
    5.9423    2.1464    0.9631 H   0  0  0  0  0  0  0  0  0  0  0  0
    6.5753   -0.1922    0.5911 H   0  0  0  0  0  0  0  0  0  0  0  0
    2.5886   -1.4749    1.6068 H   0  0  0  0  0  0  0  0  0  0  0  0
    6.1635   -4.3170   -0.5550 H   0  0  0  0  0  0  0  0  0  0  0  0
    6.3693   -4.5631    1.2075 H   0  0  0  0  0  0  0  0  0  0  0  0
    8.4812   -5.0077   -0.1105 H   0  0  0  0  0  0  0  0  0  0  0  0
    8.6564   -3.7323    1.1172 H   0  0  0  0  0  0  0  0  0  0  0  0
    8.5034   -3.2815   -0.5775 H   0  0  0  0  0  0  0  0  0  0  0  0
    3.0114    3.4633   -0.2507 H   0  0  0  0  0  0  0  0  0  0  0  0
    4.5802    4.0972    0.2947 H   0  0  0  0  0  0  0  0  0  0  0  0
    2.9238    5.9440    0.0931 H   0  0  0  0  0  0  0  0  0  0  0  0
    1.8137    5.1005    1.1803 H   0  0  0  0  0  0  0  0  0  0  0  0
    4.0635    2.9351    3.8213 H   0  0  0  0  0  0  0  0  0  0  0  0
    5.2270    3.7527    2.7555 H   0  0  0  0  0  0  0  0  0  0  0  0
    2.4752    4.8181    3.6285 H   0  0  0  0  0  0  0  0  0  0  0  0
    4.0600    5.4061    4.1509 H   0  0  0  0  0  0  0  0  0  0  0  0
    2.9026    8.0141    4.0651 H   0  0  0  0  0  0  0  0  0  0  0  0
    3.8368    9.1368    6.0740 H   0  0  0  0  0  0  0  0  0  0  0  0
    6.2925    9.3978    6.3143 H   0  0  0  0  0  0  0  0  0  0  0  0
    7.8176    8.5884    4.5392 H   0  0  0  0  0  0  0  0  0  0  0  0
    6.8874    7.4665    2.5205 H   0  0  0  0  0  0  0  0  0  0  0  0
  1  2  1  0
  2  3  1  0
  2  4  1  0
  4  5  2  0
  5  6  1  0
  6  7  2  0
  7  8  1  0
  8  9  2  0
  7 10  1  0
 10 11  1  0
 11 12  1  0
 12 13  2  0
 12 14  1  0
 14 15  1  0
 15 16  1  0
 16 17  2  0
 17 18  1  0
 18 19  2  0
 19 20  1  0
 19 21  1  0
 21 22  2  0
 21 23  1  0
 23 24  1  0
 24 25  1  0
 16 26  1  0
 26 27  1  0
 27 28  1  0
 26 29  1  0
 29 30  1  0
 30 31  1  0
 31 32  1  0
 32 33  2  0
 32 34  1  0
 34 35  2  0
 35 36  1  0
 36 37  2  0
 37 38  1  0
 38 39  2  0
  9  4  1  0
 20 15  2  0
 31 28  1  0
 39 34  1  0
  1 40  1  0
  1 41  1  0
  1 42  1  0
  2 43  1  0
  3 44  1  0
  3 45  1  0
  3 46  1  0
  5 47  1  0
  6 48  1  0
  8 49  1  0
  9 50  1  0
 11 51  1  0
 11 52  1  0
 14 53  1  0
 17 54  1  0
 18 55  1  0
 20 56  1  0
 24 57  1  0
 24 58  1  0
 25 59  1  0
 25 60  1  0
 25 61  1  0
 27 62  1  0
 27 63  1  0
 28 64  1  0
 28 65  1  0
 29 66  1  0
 29 67  1  0
 30 68  1  0
 30 69  1  0
 35 70  1  0
 36 71  1  0
 37 72  1  0
 38 73  1  0
 39 74  1  0
M  END
>  <mol_id>  (39) 
STK189045

>  <drugclip_rank>  (39) 
39

>  <conformer>  (39) 
10

>  <align_rmsd>  (39) 
0.696

$$$$
V018-4858
     RDKit          3D

 78 81  0  0  0  0  0  0  0  0999 V2000
   -3.8039    6.4151   -1.8492 C   0  0  0  0  0  0  0  0  0  0  0  0
   -4.7985    6.5634   -0.6800 C   0  0  0  0  0  0  0  0  0  0  0  0
   -5.9513    7.4209   -0.9960 N   0  0  0  0  0  0  0  0  0  0  0  0
   -6.7384    8.0155   -0.0163 C   0  0  0  0  0  0  0  0  0  0  0  0
   -7.8647    8.4591   -0.2416 O   0  0  0  0  0  0  0  0  0  0  0  0
   -6.1403    8.1333    1.3625 C   0  0  0  0  0  0  0  0  0  0  0  0
   -6.5768    7.1576   -2.2975 C   0  0  0  0  0  0  0  0  0  0  0  0
   -5.5512    7.0959   -3.4423 C   0  0  0  0  0  0  0  0  0  0  0  0
   -4.4485    6.1501   -3.1550 N   0  0  0  0  0  0  0  0  0  0  0  0
   -4.8097    4.8062   -3.3583 C   0  0  0  0  0  0  0  0  0  0  0  0
   -4.9791    3.9958   -2.3103 N   0  0  0  0  0  0  0  0  0  0  0  0
   -5.3039    2.7244   -2.5643 C   0  0  0  0  0  0  0  0  0  0  0  0
   -5.4496    2.1915   -3.7864 N   0  0  0  0  0  0  0  0  0  0  0  0
   -5.2642    3.0073   -4.8458 C   0  0  0  0  0  0  0  0  0  0  0  0
   -4.9503    4.3408   -4.6575 C   0  0  0  0  0  0  0  0  0  0  0  0
   -5.3994    2.3575   -6.2257 C   0  0  0  0  0  0  0  0  0  0  0  0
   -6.8203    1.7758   -6.3636 C   0  0  0  0  0  0  0  0  0  0  0  0
   -5.1639    3.3196   -7.4072 C   0  0  0  0  0  0  0  0  0  0  0  0
   -4.3697    1.2122   -6.3340 C   0  0  0  0  0  0  0  0  0  0  0  0
   -5.5524    1.6689   -1.1659 S   0  0  0  0  0  0  0  0  0  0  0  0
   -4.2256    0.4768   -1.4947 C   0  0  0  0  0  0  0  0  0  0  0  0
   -2.8444    1.0741   -1.3665 C   0  0  0  0  0  0  0  0  0  0  0  0
   -2.1131    1.4438   -2.5068 C   0  0  0  0  0  0  0  0  0  0  0  0
   -0.8439    2.0158   -2.3862 C   0  0  0  0  0  0  0  0  0  0  0  0
   -0.2835    2.2140   -1.1254 C   0  0  0  0  0  0  0  0  0  0  0  0
   -2.2799    1.2919   -0.1012 C   0  0  0  0  0  0  0  0  0  0  0  0
   -0.9985    1.8447    0.0205 C   0  0  0  0  0  0  0  0  0  0  0  0
   -0.4222    1.9994    1.3822 C   0  0  0  0  0  0  0  0  0  0  0  0
   -1.1502    2.1929    2.3501 O   0  0  0  0  0  0  0  0  0  0  0  0
    0.9367    1.8065    1.4740 N   0  0  0  0  0  0  0  0  0  0  0  0
    1.5781    1.6415    2.7663 C   0  0  0  0  0  0  0  0  0  0  0  0
    2.9180    0.8898    2.6353 C   0  0  0  0  0  0  0  0  0  0  0  0
    2.8614   -0.2507    1.6946 N   0  0  0  0  0  0  0  0  0  0  0  0
    4.2183   -0.7836    1.4389 C   0  0  0  0  0  0  0  0  0  0  0  0
    4.1508   -2.1783    0.7992 C   0  0  0  0  0  0  0  0  0  0  0  0
    3.5628   -3.1603    1.6622 O   0  0  0  0  0  0  0  0  0  0  0  0
    2.6545   -2.6015    2.6194 C   0  0  0  0  0  0  0  0  0  0  0  0
    1.9443   -1.3332    2.1202 C   0  0  0  0  0  0  0  0  0  0  0  0
   -3.2508    7.3595   -1.9505 H   0  0  0  0  0  0  0  0  0  0  0  0
   -3.0499    5.6518   -1.6135 H   0  0  0  0  0  0  0  0  0  0  0  0
   -5.2022    5.5920   -0.3737 H   0  0  0  0  0  0  0  0  0  0  0  0
   -4.2537    6.9658    0.1800 H   0  0  0  0  0  0  0  0  0  0  0  0
   -6.8480    8.6459    2.0204 H   0  0  0  0  0  0  0  0  0  0  0  0
   -5.2254    8.7250    1.3202 H   0  0  0  0  0  0  0  0  0  0  0  0
   -5.9417    7.1453    1.7815 H   0  0  0  0  0  0  0  0  0  0  0  0
   -7.3198    7.9303   -2.5201 H   0  0  0  0  0  0  0  0  0  0  0  0
   -7.1174    6.2095   -2.2085 H   0  0  0  0  0  0  0  0  0  0  0  0
   -5.1035    8.0912   -3.5670 H   0  0  0  0  0  0  0  0  0  0  0  0
   -6.0516    6.8648   -4.3907 H   0  0  0  0  0  0  0  0  0  0  0  0
   -4.7787    5.0189   -5.4814 H   0  0  0  0  0  0  0  0  0  0  0  0
   -7.5803    2.5585   -6.2693 H   0  0  0  0  0  0  0  0  0  0  0  0
   -7.0295    1.0234   -5.5943 H   0  0  0  0  0  0  0  0  0  0  0  0
   -6.9552    1.2891   -7.3350 H   0  0  0  0  0  0  0  0  0  0  0  0
   -5.2680    2.7974   -8.3654 H   0  0  0  0  0  0  0  0  0  0  0  0
   -4.1560    3.7493   -7.3845 H   0  0  0  0  0  0  0  0  0  0  0  0
   -5.8872    4.1437   -7.4059 H   0  0  0  0  0  0  0  0  0  0  0  0
   -4.4252    0.7198   -7.3116 H   0  0  0  0  0  0  0  0  0  0  0  0
   -3.3458    1.5847   -6.2022 H   0  0  0  0  0  0  0  0  0  0  0  0
   -4.5340    0.4406   -5.5730 H   0  0  0  0  0  0  0  0  0  0  0  0
   -4.3266   -0.3377   -0.7696 H   0  0  0  0  0  0  0  0  0  0  0  0
   -4.3604    0.0152   -2.4772 H   0  0  0  0  0  0  0  0  0  0  0  0
   -2.5348    1.2978   -3.4995 H   0  0  0  0  0  0  0  0  0  0  0  0
   -0.2936    2.3106   -3.2773 H   0  0  0  0  0  0  0  0  0  0  0  0
    0.6979    2.6748   -1.0477 H   0  0  0  0  0  0  0  0  0  0  0  0
   -2.8332    1.0196    0.7967 H   0  0  0  0  0  0  0  0  0  0  0  0
    1.3981    1.3184    0.7137 H   0  0  0  0  0  0  0  0  0  0  0  0
    1.7407    2.6392    3.1878 H   0  0  0  0  0  0  0  0  0  0  0  0
    0.8971    1.1052    3.4379 H   0  0  0  0  0  0  0  0  0  0  0  0
    3.6518    1.6076    2.2449 H   0  0  0  0  0  0  0  0  0  0  0  0
    3.2687    0.5782    3.6282 H   0  0  0  0  0  0  0  0  0  0  0  0
    4.7829   -0.8567    2.3762 H   0  0  0  0  0  0  0  0  0  0  0  0
    4.7531   -0.0988    0.7742 H   0  0  0  0  0  0  0  0  0  0  0  0
    5.1577   -2.5268    0.5481 H   0  0  0  0  0  0  0  0  0  0  0  0
    3.5751   -2.1540   -0.1335 H   0  0  0  0  0  0  0  0  0  0  0  0
    3.2094   -2.3983    3.5416 H   0  0  0  0  0  0  0  0  0  0  0  0
    1.9147   -3.3739    2.8539 H   0  0  0  0  0  0  0  0  0  0  0  0
    1.3549   -1.6033    1.2340 H   0  0  0  0  0  0  0  0  0  0  0  0
    1.2267   -1.0031    2.8769 H   0  0  0  0  0  0  0  0  0  0  0  0
  1  2  1  0
  2  3  1  0
  3  4  1  0
  4  5  2  0
  4  6  1  0
  3  7  1  0
  7  8  1  0
  8  9  1  0
  9 10  1  0
 10 11  2  0
 11 12  1  0
 12 13  2  0
 13 14  1  0
 14 15  2  0
 14 16  1  0
 16 17  1  0
 16 18  1  0
 16 19  1  0
 12 20  1  0
 20 21  1  0
 21 22  1  0
 22 23  2  0
 23 24  1  0
 24 25  2  0
 22 26  1  0
 26 27  2  0
 27 28  1  0
 28 29  2  0
 28 30  1  0
 30 31  1  0
 31 32  1  0
 32 33  1  0
 33 34  1  0
 34 35  1  0
 35 36  1  0
 36 37  1  0
 37 38  1  0
  9  1  1  0
 15 10  1  0
 27 25  1  0
 38 33  1  0
  1 39  1  0
  1 40  1  0
  2 41  1  0
  2 42  1  0
  6 43  1  0
  6 44  1  0
  6 45  1  0
  7 46  1  0
  7 47  1  0
  8 48  1  0
  8 49  1  0
 15 50  1  0
 17 51  1  0
 17 52  1  0
 17 53  1  0
 18 54  1  0
 18 55  1  0
 18 56  1  0
 19 57  1  0
 19 58  1  0
 19 59  1  0
 21 60  1  0
 21 61  1  0
 23 62  1  0
 24 63  1  0
 25 64  1  0
 26 65  1  0
 30 66  1  0
 31 67  1  0
 31 68  1  0
 32 69  1  0
 32 70  1  0
 34 71  1  0
 34 72  1  0
 35 73  1  0
 35 74  1  0
 37 75  1  0
 37 76  1  0
 38 77  1  0
 38 78  1  0
M  END
>  <mol_id>  (40) 
V018-4858

>  <drugclip_rank>  (40) 
40

>  <conformer>  (40) 
26

>  <align_rmsd>  (40) 
1.317

$$$$
V028-1746
     RDKit          3D

 77 80  0  0  0  0  0  0  0  0999 V2000
   -7.0285    0.1672    0.3129 C   0  0  0  0  0  0  0  0  0  0  0  0
   -7.5869   -0.9441   -0.3251 C   0  0  0  0  0  0  0  0  0  0  0  0
   -7.2751   -1.2184   -1.6568 C   0  0  0  0  0  0  0  0  0  0  0  0
   -6.4057   -0.3814   -2.3552 C   0  0  0  0  0  0  0  0  0  0  0  0
   -5.8480    0.7291   -1.7185 C   0  0  0  0  0  0  0  0  0  0  0  0
   -6.1524    1.0175   -0.3793 C   0  0  0  0  0  0  0  0  0  0  0  0
   -5.5617    2.2423    0.2968 C   0  0  0  0  0  0  0  0  0  0  0  0
   -6.0792    3.4790   -0.2998 N   0  0  0  0  0  0  0  0  0  0  0  0
   -7.5141    3.6993   -0.2344 C   0  0  0  0  0  0  0  0  0  0  0  0
   -5.2815    4.1226   -1.2360 C   0  0  0  0  0  0  0  0  0  0  0  0
   -3.9496    4.0030   -1.1173 N   0  0  0  0  0  0  0  0  0  0  0  0
   -3.1772    4.6342   -2.0061 C   0  0  0  0  0  0  0  0  0  0  0  0
   -3.6233    5.3550   -3.0422 N   0  0  0  0  0  0  0  0  0  0  0  0
   -4.9585    5.4900   -3.1690 C   0  0  0  0  0  0  0  0  0  0  0  0
   -5.8170    4.8872   -2.2633 C   0  0  0  0  0  0  0  0  0  0  0  0
   -5.4437    6.3154   -4.3654 C   0  0  0  0  0  0  0  0  0  0  0  0
   -5.0255    5.5920   -5.6614 C   0  0  0  0  0  0  0  0  0  0  0  0
   -6.9704    6.5302   -4.4117 C   0  0  0  0  0  0  0  0  0  0  0  0
   -4.7752    7.7059   -4.3229 C   0  0  0  0  0  0  0  0  0  0  0  0
   -1.4237    4.5558   -1.7785 S   0  0  0  0  0  0  0  0  0  0  0  0
   -1.1139    2.9933   -2.6374 C   0  0  0  0  0  0  0  0  0  0  0  0
   -1.3759    1.7561   -1.8087 C   0  0  0  0  0  0  0  0  0  0  0  0
   -2.2040    0.7394   -2.3072 C   0  0  0  0  0  0  0  0  0  0  0  0
   -2.4423   -0.4172   -1.5622 C   0  0  0  0  0  0  0  0  0  0  0  0
   -1.8421   -0.5804   -0.3160 C   0  0  0  0  0  0  0  0  0  0  0  0
   -0.7649    1.5731   -0.5554 C   0  0  0  0  0  0  0  0  0  0  0  0
   -0.9894    0.4062    0.1896 C   0  0  0  0  0  0  0  0  0  0  0  0
   -0.3484    0.1747    1.5170 C   0  0  0  0  0  0  0  0  0  0  0  0
   -0.8192   -0.6488    2.2967 O   0  0  0  0  0  0  0  0  0  0  0  0
    0.8123    0.8793    1.7705 N   0  0  0  0  0  0  0  0  0  0  0  0
    1.6544    0.5207    2.8993 C   0  0  0  0  0  0  0  0  0  0  0  0
    2.5881   -0.6539    2.5484 C   0  0  0  0  0  0  0  0  0  0  0  0
    3.4007   -0.3857    1.3414 N   0  0  0  0  0  0  0  0  0  0  0  0
    4.5336    0.5292    1.6013 C   0  0  0  0  0  0  0  0  0  0  0  0
    5.8814   -0.1936    1.7636 C   0  0  0  0  0  0  0  0  0  0  0  0
    6.2499   -0.9619    0.6110 O   0  0  0  0  0  0  0  0  0  0  0  0
    5.1193   -1.4487   -0.1261 C   0  0  0  0  0  0  0  0  0  0  0  0
    3.8826   -1.6579    0.7577 C   0  0  0  0  0  0  0  0  0  0  0  0
   -7.2954    0.3766    1.3441 H   0  0  0  0  0  0  0  0  0  0  0  0
   -8.2690   -1.5940    0.2190 H   0  0  0  0  0  0  0  0  0  0  0  0
   -7.7143   -2.0812   -2.1510 H   0  0  0  0  0  0  0  0  0  0  0  0
   -6.1625   -0.5905   -3.3940 H   0  0  0  0  0  0  0  0  0  0  0  0
   -5.1735    1.3813   -2.2714 H   0  0  0  0  0  0  0  0  0  0  0  0
   -4.4679    2.1572    0.2741 H   0  0  0  0  0  0  0  0  0  0  0  0
   -5.8254    2.2382    1.3635 H   0  0  0  0  0  0  0  0  0  0  0  0
   -8.0248    3.2549   -1.0968 H   0  0  0  0  0  0  0  0  0  0  0  0
   -7.7478    4.7695   -0.1906 H   0  0  0  0  0  0  0  0  0  0  0  0
   -7.9376    3.2527    0.6731 H   0  0  0  0  0  0  0  0  0  0  0  0
   -6.8876    4.9808   -2.3708 H   0  0  0  0  0  0  0  0  0  0  0  0
   -5.4571    4.5847   -5.7060 H   0  0  0  0  0  0  0  0  0  0  0  0
   -3.9361    5.4866   -5.7367 H   0  0  0  0  0  0  0  0  0  0  0  0
   -5.3633    6.1394   -6.5494 H   0  0  0  0  0  0  0  0  0  0  0  0
   -7.3299    7.0402   -3.5102 H   0  0  0  0  0  0  0  0  0  0  0  0
   -7.5106    5.5798   -4.5018 H   0  0  0  0  0  0  0  0  0  0  0  0
   -7.2591    7.1465   -5.2724 H   0  0  0  0  0  0  0  0  0  0  0  0
   -5.1166    8.3370   -5.1536 H   0  0  0  0  0  0  0  0  0  0  0  0
   -5.0072    8.2302   -3.3875 H   0  0  0  0  0  0  0  0  0  0  0  0
   -3.6825    7.6342   -4.3985 H   0  0  0  0  0  0  0  0  0  0  0  0
   -0.0610    2.9754   -2.9367 H   0  0  0  0  0  0  0  0  0  0  0  0
   -1.6946    2.9717   -3.5661 H   0  0  0  0  0  0  0  0  0  0  0  0
   -2.6846    0.8464   -3.2774 H   0  0  0  0  0  0  0  0  0  0  0  0
   -3.1059   -1.1891   -1.9457 H   0  0  0  0  0  0  0  0  0  0  0  0
   -2.0371   -1.4823    0.2604 H   0  0  0  0  0  0  0  0  0  0  0  0
   -0.1328    2.3607   -0.1536 H   0  0  0  0  0  0  0  0  0  0  0  0
    1.3256    1.2118    0.9660 H   0  0  0  0  0  0  0  0  0  0  0  0
    2.2253    1.4149    3.1682 H   0  0  0  0  0  0  0  0  0  0  0  0
    1.0275    0.2505    3.7553 H   0  0  0  0  0  0  0  0  0  0  0  0
    1.9507   -1.5292    2.3639 H   0  0  0  0  0  0  0  0  0  0  0  0
    3.2272   -0.9013    3.4050 H   0  0  0  0  0  0  0  0  0  0  0  0
    4.3550    1.1740    2.4679 H   0  0  0  0  0  0  0  0  0  0  0  0
    4.6034    1.1968    0.7334 H   0  0  0  0  0  0  0  0  0  0  0  0
    5.8598   -0.8642    2.6305 H   0  0  0  0  0  0  0  0  0  0  0  0
    6.6789    0.5351    1.9380 H   0  0  0  0  0  0  0  0  0  0  0  0
    5.4128   -2.3970   -0.5890 H   0  0  0  0  0  0  0  0  0  0  0  0
    4.9098   -0.7416   -0.9380 H   0  0  0  0  0  0  0  0  0  0  0  0
    4.1430   -2.3710    1.5517 H   0  0  0  0  0  0  0  0  0  0  0  0
    3.0766   -2.0990    0.1580 H   0  0  0  0  0  0  0  0  0  0  0  0
  1  2  2  0
  2  3  1  0
  3  4  2  0
  4  5  1  0
  5  6  2  0
  6  7  1  0
  7  8  1  0
  8  9  1  0
  8 10  1  0
 10 11  2  0
 11 12  1  0
 12 13  2  0
 13 14  1  0
 14 15  2  0
 14 16  1  0
 16 17  1  0
 16 18  1  0
 16 19  1  0
 12 20  1  0
 20 21  1  0
 21 22  1  0
 22 23  2  0
 23 24  1  0
 24 25  2  0
 22 26  1  0
 26 27  2  0
 27 28  1  0
 28 29  2  0
 28 30  1  0
 30 31  1  0
 31 32  1  0
 32 33  1  0
 33 34  1  0
 34 35  1  0
 35 36  1  0
 36 37  1  0
 37 38  1  0
  6  1  1  0
 15 10  1  0
 27 25  1  0
 38 33  1  0
  1 39  1  0
  2 40  1  0
  3 41  1  0
  4 42  1  0
  5 43  1  0
  7 44  1  0
  7 45  1  0
  9 46  1  0
  9 47  1  0
  9 48  1  0
 15 49  1  0
 17 50  1  0
 17 51  1  0
 17 52  1  0
 18 53  1  0
 18 54  1  0
 18 55  1  0
 19 56  1  0
 19 57  1  0
 19 58  1  0
 21 59  1  0
 21 60  1  0
 23 61  1  0
 24 62  1  0
 25 63  1  0
 26 64  1  0
 30 65  1  0
 31 66  1  0
 31 67  1  0
 32 68  1  0
 32 69  1  0
 34 70  1  0
 34 71  1  0
 35 72  1  0
 35 73  1  0
 37 74  1  0
 37 75  1  0
 38 76  1  0
 38 77  1  0
M  END
>  <mol_id>  (41) 
V028-1746

>  <drugclip_rank>  (41) 
41

>  <conformer>  (41) 
38

>  <align_rmsd>  (41) 
1.438

$$$$
Z9466035860
     RDKit          3D

 64 66  0  0  0  0  0  0  0  0999 V2000
    6.1067   -7.3604    1.8631 C   0  0  0  0  0  0  0  0  0  0  0  0
    6.0372   -6.4972    3.1162 C   0  0  0  0  0  0  0  0  0  0  0  0
    5.1892   -5.2307    2.9371 C   0  0  0  0  0  0  0  0  0  0  0  0
    5.7815   -4.2012    1.9571 C   0  0  2  0  0  0  0  0  0  0  0  0
    7.0711   -3.7030    2.4656 N   0  0  0  0  0  0  0  0  0  0  0  0
    8.1049   -3.3817    1.6160 C   0  0  0  0  0  0  0  0  0  0  0  0
    7.9674   -3.2947    0.4000 O   0  0  0  0  0  0  0  0  0  0  0  0
    9.4202   -3.1180    2.2989 C   0  0  0  0  0  0  0  0  0  0  0  0
    4.7296   -3.0888    1.6907 C   0  0  0  0  0  0  0  0  0  0  0  0
    3.5871   -3.3807    1.3548 O   0  0  0  0  0  0  0  0  0  0  0  0
    5.2306   -1.8065    1.8205 N   0  0  0  0  0  0  0  0  0  0  0  0
    4.5442   -0.5818    1.6899 C   0  0  0  0  0  0  0  0  0  0  0  0
    5.3203    0.5820    1.7361 C   0  0  0  0  0  0  0  0  0  0  0  0
    4.7245    1.8376    1.6224 C   0  0  0  0  0  0  0  0  0  0  0  0
    3.3438    1.9386    1.4689 C   0  0  0  0  0  0  0  0  0  0  0  0
    2.5481    0.7882    1.4144 C   0  0  0  0  0  0  0  0  0  0  0  0
    3.1569   -0.4706    1.5199 C   0  0  0  0  0  0  0  0  0  0  0  0
    1.1672    0.9858    1.2268 N   0  0  0  0  0  0  0  0  0  0  0  0
    0.1542    0.0396    1.1741 C   0  0  0  0  0  0  0  0  0  0  0  0
    0.2755   -1.1655    1.3553 O   0  0  0  0  0  0  0  0  0  0  0  0
   -1.1487    0.6748    0.8698 C   0  0  0  0  0  0  0  0  0  0  0  0
   -1.2805    2.0419    0.7251 N   0  0  0  0  0  0  0  0  0  0  0  0
   -2.5678    2.2143    0.4789 C   0  0  0  0  0  0  0  0  0  0  0  0
   -3.2592    3.5463    0.5416 C   0  0  0  0  0  0  0  0  0  0  0  0
   -2.7180    4.4871   -0.5341 C   0  0  0  0  0  0  0  0  0  0  0  0
   -3.0604    4.1689    1.9280 C   0  0  0  0  0  0  0  0  0  0  0  0
   -3.1741    0.9680    0.3316 N   0  0  0  0  0  0  0  0  0  0  0  0
   -2.3017    0.0082    0.7355 N   0  0  0  0  0  0  0  0  0  0  0  0
   -4.4584    0.5761   -0.1199 C   0  0  0  0  0  0  0  0  0  0  0  0
   -4.9692   -0.6730    0.2780 C   0  0  0  0  0  0  0  0  0  0  0  0
   -6.2308   -1.0948   -0.1536 C   0  0  0  0  0  0  0  0  0  0  0  0
   -6.9847   -0.2894   -1.0052 C   0  0  0  0  0  0  0  0  0  0  0  0
   -6.4662    0.9299   -1.4394 C   0  0  0  0  0  0  0  0  0  0  0  0
   -5.2034    1.3477   -1.0125 C   0  0  0  0  0  0  0  0  0  0  0  0
   -4.7195    2.4780   -1.5417 F   0  0  0  0  0  0  0  0  0  0  0  0
    5.1019   -7.6058    1.5011 H   0  0  0  0  0  0  0  0  0  0  0  0
    6.6594   -6.8616    1.0622 H   0  0  0  0  0  0  0  0  0  0  0  0
    6.6210   -8.3010    2.0852 H   0  0  0  0  0  0  0  0  0  0  0  0
    7.0539   -6.2363    3.4383 H   0  0  0  0  0  0  0  0  0  0  0  0
    5.5948   -7.0943    3.9233 H   0  0  0  0  0  0  0  0  0  0  0  0
    5.0726   -4.7573    3.9211 H   0  0  0  0  0  0  0  0  0  0  0  0
    4.1795   -5.5251    2.6202 H   0  0  0  0  0  0  0  0  0  0  0  0
    5.9619   -4.6699    0.9832 H   0  0  0  0  0  0  0  0  0  0  0  0
    7.2546   -3.7860    3.4610 H   0  0  0  0  0  0  0  0  0  0  0  0
   10.1233   -3.9112    2.0259 H   0  0  0  0  0  0  0  0  0  0  0  0
    9.8079   -2.1511    1.9657 H   0  0  0  0  0  0  0  0  0  0  0  0
    9.3160   -3.0958    3.3867 H   0  0  0  0  0  0  0  0  0  0  0  0
    6.2342   -1.7574    1.9406 H   0  0  0  0  0  0  0  0  0  0  0  0
    6.3993    0.5271    1.8420 H   0  0  0  0  0  0  0  0  0  0  0  0
    5.3386    2.7325    1.6325 H   0  0  0  0  0  0  0  0  0  0  0  0
    2.8945    2.9265    1.3843 H   0  0  0  0  0  0  0  0  0  0  0  0
    2.5480   -1.3654    1.4668 H   0  0  0  0  0  0  0  0  0  0  0  0
    0.8427    1.9407    1.0970 H   0  0  0  0  0  0  0  0  0  0  0  0
   -4.3390    3.4412    0.4134 H   0  0  0  0  0  0  0  0  0  0  0  0
   -2.8497    4.0705   -1.5379 H   0  0  0  0  0  0  0  0  0  0  0  0
   -3.2411    5.4488   -0.4999 H   0  0  0  0  0  0  0  0  0  0  0  0
   -1.6485    4.6825   -0.3973 H   0  0  0  0  0  0  0  0  0  0  0  0
   -3.5982    5.1199    2.0053 H   0  0  0  0  0  0  0  0  0  0  0  0
   -2.0028    4.3639    2.1370 H   0  0  0  0  0  0  0  0  0  0  0  0
   -3.4347    3.5014    2.7108 H   0  0  0  0  0  0  0  0  0  0  0  0
   -4.3977   -1.3295    0.9342 H   0  0  0  0  0  0  0  0  0  0  0  0
   -6.6151   -2.0608    0.1654 H   0  0  0  0  0  0  0  0  0  0  0  0
   -7.9616   -0.6225   -1.3467 H   0  0  0  0  0  0  0  0  0  0  0  0
   -7.0286    1.5561   -2.1233 H   0  0  0  0  0  0  0  0  0  0  0  0
  1  2  1  0
  2  3  1  0
  3  4  1  0
  4  5  1  0
  5  6  1  0
  6  7  2  0
  6  8  1  0
  4  9  1  0
  9 10  2  0
  9 11  1  0
 11 12  1  0
 12 13  2  0
 13 14  1  0
 14 15  2  0
 15 16  1  0
 16 17  2  0
 16 18  1  0
 18 19  1  0
 19 20  2  0
 19 21  1  0
 21 22  1  0
 22 23  2  0
 23 24  1  0
 24 25  1  0
 24 26  1  0
 23 27  1  0
 27 28  1  0
 27 29  1  0
 29 30  2  0
 30 31  1  0
 31 32  2  0
 32 33  1  0
 33 34  2  0
 34 35  1  0
 17 12  1  0
 28 21  2  0
 34 29  1  0
  1 36  1  0
  1 37  1  0
  1 38  1  0
  2 39  1  0
  2 40  1  0
  3 41  1  0
  3 42  1  0
  4 43  1  6
  5 44  1  0
  8 45  1  0
  8 46  1  0
  8 47  1  0
 11 48  1  0
 13 49  1  0
 14 50  1  0
 15 51  1  0
 17 52  1  0
 18 53  1  0
 24 54  1  0
 25 55  1  0
 25 56  1  0
 25 57  1  0
 26 58  1  0
 26 59  1  0
 26 60  1  0
 30 61  1  0
 31 62  1  0
 32 63  1  0
 33 64  1  0
M  END
>  <mol_id>  (42) 
Z9466035860

>  <drugclip_rank>  (42) 
42

>  <conformer>  (42) 
31

>  <align_rmsd>  (42) 
0.763

$$$$
OSSK_595553
     RDKit          3D

 71 74  0  0  0  0  0  0  0  0999 V2000
   -5.7658    4.6521   -3.7914 C   0  0  0  0  0  0  0  0  0  0  0  0
   -5.9863    3.4036   -2.9499 C   0  0  0  0  0  0  0  0  0  0  0  0
   -4.6892    2.7564   -2.4667 C   0  0  0  0  0  0  0  0  0  0  0  0
   -3.8878    3.6330   -1.5035 C   0  0  0  0  0  0  0  0  0  0  0  0
   -2.6451    3.0127   -1.1711 O   0  0  0  0  0  0  0  0  0  0  0  0
   -2.5948    2.1088   -0.1493 C   0  0  0  0  0  0  0  0  0  0  0  0
   -3.6532    1.7068    0.6649 C   0  0  0  0  0  0  0  0  0  0  0  0
   -3.4485    0.7525    1.6680 C   0  0  0  0  0  0  0  0  0  0  0  0
   -2.1850    0.1932    1.8613 C   0  0  0  0  0  0  0  0  0  0  0  0
   -1.3305    1.5489    0.0487 C   0  0  0  0  0  0  0  0  0  0  0  0
   -1.1178    0.6035    1.0599 C   0  0  0  0  0  0  0  0  0  0  0  0
    0.2238   -0.0102    1.2555 C   0  0  0  0  0  0  0  0  0  0  0  0
    0.2937   -1.1954    1.5581 O   0  0  0  0  0  0  0  0  0  0  0  0
    1.2713    0.8620    1.0721 N   0  0  0  0  0  0  0  0  0  0  0  0
    2.6534    0.5929    1.0221 C   0  0  0  0  0  0  0  0  0  0  0  0
    3.4839    1.7304    0.8422 C   0  0  0  0  0  0  0  0  0  0  0  0
    4.8681    1.5444    0.7583 C   0  0  0  0  0  0  0  0  0  0  0  0
    5.4172    0.2624    0.8666 C   0  0  0  0  0  0  0  0  0  0  0  0
    4.5919   -0.8559    1.0493 C   0  0  0  0  0  0  0  0  0  0  0  0
    3.2022   -0.6869    1.1224 C   0  0  0  0  0  0  0  0  0  0  0  0
    5.2404   -2.1919    1.1496 C   0  0  0  0  0  0  0  0  0  0  0  0
    6.4451   -2.3619    1.0465 O   0  0  0  0  0  0  0  0  0  0  0  0
    4.3169   -3.1590    1.3647 O   0  0  0  0  0  0  0  0  0  0  0  0
    4.8634   -4.4714    1.5128 C   0  0  0  0  0  0  0  0  0  0  0  0
    2.8764    2.9974    0.7258 N   0  0  0  0  0  0  0  0  0  0  0  0
    3.3739    4.0508    1.6474 C   0  0  0  0  0  0  0  0  0  0  0  0
    3.4396    5.4443    0.9881 C   0  0  0  0  0  0  0  0  0  0  0  0
    2.6749    3.4243   -0.6751 C   0  0  0  0  0  0  0  0  0  0  0  0
    1.7656    4.6702   -0.6921 C   0  0  0  0  0  0  0  0  0  0  0  0
    2.2508    5.7451    0.1877 N   0  0  0  0  0  0  0  0  0  0  0  0
    1.7562    7.0441    0.1754 C   0  0  0  0  0  0  0  0  0  0  0  0
    2.3146    7.9927    0.7183 O   0  0  0  0  0  0  0  0  0  0  0  0
    0.4811    7.2966   -0.5259 C   0  0  0  0  0  0  0  0  0  0  0  0
   -0.7066    6.7412   -0.0347 C   0  0  0  0  0  0  0  0  0  0  0  0
   -1.9095    7.0000   -0.6908 C   0  0  0  0  0  0  0  0  0  0  0  0
   -1.9237    7.8128   -1.8268 C   0  0  0  0  0  0  0  0  0  0  0  0
   -0.7383    8.3822   -2.3014 C   0  0  0  0  0  0  0  0  0  0  0  0
    0.4694    8.1318   -1.6460 C   0  0  0  0  0  0  0  0  0  0  0  0
   -5.3471    5.4680   -3.1905 H   0  0  0  0  0  0  0  0  0  0  0  0
   -5.0884    4.4521   -4.6289 H   0  0  0  0  0  0  0  0  0  0  0  0
   -6.7184    5.0009   -4.2050 H   0  0  0  0  0  0  0  0  0  0  0  0
   -6.6216    3.6543   -2.0930 H   0  0  0  0  0  0  0  0  0  0  0  0
   -6.5394    2.6715   -3.5497 H   0  0  0  0  0  0  0  0  0  0  0  0
   -4.9374    1.8107   -1.9746 H   0  0  0  0  0  0  0  0  0  0  0  0
   -4.0612    2.4829   -3.3221 H   0  0  0  0  0  0  0  0  0  0  0  0
   -3.6223    4.5730   -2.0020 H   0  0  0  0  0  0  0  0  0  0  0  0
   -4.4593    3.9188   -0.6127 H   0  0  0  0  0  0  0  0  0  0  0  0
   -4.6554    2.1032    0.5412 H   0  0  0  0  0  0  0  0  0  0  0  0
   -4.2789    0.4382    2.2945 H   0  0  0  0  0  0  0  0  0  0  0  0
   -2.0330   -0.5585    2.6320 H   0  0  0  0  0  0  0  0  0  0  0  0
   -0.5239    1.8324   -0.6203 H   0  0  0  0  0  0  0  0  0  0  0  0
    1.0778    1.8569    0.9987 H   0  0  0  0  0  0  0  0  0  0  0  0
    5.5349    2.3882    0.6017 H   0  0  0  0  0  0  0  0  0  0  0  0
    6.4987    0.1395    0.8040 H   0  0  0  0  0  0  0  0  0  0  0  0
    2.5590   -1.5508    1.2541 H   0  0  0  0  0  0  0  0  0  0  0  0
    4.0374   -5.1615    1.7043 H   0  0  0  0  0  0  0  0  0  0  0  0
    5.5490   -4.5056    2.3658 H   0  0  0  0  0  0  0  0  0  0  0  0
    5.3694   -4.7815    0.5923 H   0  0  0  0  0  0  0  0  0  0  0  0
    4.3579    3.8189    2.0725 H   0  0  0  0  0  0  0  0  0  0  0  0
    2.6690    4.0942    2.4878 H   0  0  0  0  0  0  0  0  0  0  0  0
    4.2991    5.4962    0.3075 H   0  0  0  0  0  0  0  0  0  0  0  0
    3.5916    6.2078    1.7594 H   0  0  0  0  0  0  0  0  0  0  0  0
    3.6399    3.6498   -1.1479 H   0  0  0  0  0  0  0  0  0  0  0  0
    2.1929    2.6326   -1.2601 H   0  0  0  0  0  0  0  0  0  0  0  0
    0.7662    4.3890   -0.3413 H   0  0  0  0  0  0  0  0  0  0  0  0
    1.6714    5.0548   -1.7132 H   0  0  0  0  0  0  0  0  0  0  0  0
   -0.7000    6.1224    0.8593 H   0  0  0  0  0  0  0  0  0  0  0  0
   -2.8350    6.5759   -0.3111 H   0  0  0  0  0  0  0  0  0  0  0  0
   -2.8638    8.0160   -2.3359 H   0  0  0  0  0  0  0  0  0  0  0  0
   -0.7555    9.0244   -3.1794 H   0  0  0  0  0  0  0  0  0  0  0  0
    1.3923    8.5858   -2.0037 H   0  0  0  0  0  0  0  0  0  0  0  0
  1  2  1  0
  2  3  1  0
  3  4  1  0
  4  5  1  0
  5  6  1  0
  6  7  2  0
  7  8  1  0
  8  9  2  0
  6 10  1  0
 10 11  2  0
 11 12  1  0
 12 13  2  0
 12 14  1  0
 14 15  1  0
 15 16  1  0
 16 17  2  0
 17 18  1  0
 18 19  2  0
 19 20  1  0
 19 21  1  0
 21 22  2  0
 21 23  1  0
 23 24  1  0
 16 25  1  0
 25 26  1  0
 26 27  1  0
 25 28  1  0
 28 29  1  0
 29 30  1  0
 30 31  1  0
 31 32  2  0
 31 33  1  0
 33 34  2  0
 34 35  1  0
 35 36  2  0
 36 37  1  0
 37 38  2  0
 11  9  1  0
 20 15  2  0
 30 27  1  0
 38 33  1  0
  1 39  1  0
  1 40  1  0
  1 41  1  0
  2 42  1  0
  2 43  1  0
  3 44  1  0
  3 45  1  0
  4 46  1  0
  4 47  1  0
  7 48  1  0
  8 49  1  0
  9 50  1  0
 10 51  1  0
 14 52  1  0
 17 53  1  0
 18 54  1  0
 20 55  1  0
 24 56  1  0
 24 57  1  0
 24 58  1  0
 26 59  1  0
 26 60  1  0
 27 61  1  0
 27 62  1  0
 28 63  1  0
 28 64  1  0
 29 65  1  0
 29 66  1  0
 34 67  1  0
 35 68  1  0
 36 69  1  0
 37 70  1  0
 38 71  1  0
M  END
>  <mol_id>  (43) 
OSSK_595553

>  <drugclip_rank>  (43) 
43

>  <conformer>  (43) 
19

>  <align_rmsd>  (43) 
0.66

$$$$
V016-7668
     RDKit          3D

 69 72  0  0  0  0  0  0  0  0999 V2000
   -5.6291    0.8472   -0.6862 C   0  0  0  0  0  0  0  0  0  0  0  0
   -6.4276    0.0606    0.1460 C   0  0  0  0  0  0  0  0  0  0  0  0
   -7.2222   -0.9391   -0.3982 C   0  0  0  0  0  0  0  0  0  0  0  0
   -7.2177   -1.1544   -1.7750 C   0  0  0  0  0  0  0  0  0  0  0  0
   -6.4096   -0.3844   -2.6352 C   0  0  0  0  0  0  0  0  0  0  0  0
   -6.4500   -0.7251   -4.1025 C   0  0  0  0  0  0  0  0  0  0  0  0
   -5.6026    0.6372   -2.0782 C   0  0  0  0  0  0  0  0  0  0  0  0
   -4.7912    1.4953   -2.8926 N   0  0  0  0  0  0  0  0  0  0  0  0
   -5.1900    1.7967   -4.1568 N   0  0  0  0  0  0  0  0  0  0  0  0
   -4.3740    2.7714   -4.5819 C   0  0  0  0  0  0  0  0  0  0  0  0
   -4.5049    3.4234   -5.8924 C   0  0  0  0  0  0  0  0  0  0  0  0
   -3.7633    4.3314   -6.2560 O   0  0  0  0  0  0  0  0  0  0  0  0
   -5.5254    2.9163   -6.6473 O   0  0  0  0  0  0  0  0  0  0  0  0
   -5.7115    3.5100   -7.9381 C   0  0  0  0  0  0  0  0  0  0  0  0
   -6.6256    4.7164   -7.8301 C   0  0  0  0  0  0  0  0  0  0  0  0
   -3.3843    3.0448   -3.6136 C   0  0  0  0  0  0  0  0  0  0  0  0
   -3.6151    2.1769   -2.5628 C   0  0  0  0  0  0  0  0  0  0  0  0
   -2.7596    1.9484   -1.3978 C   0  0  0  0  0  0  0  0  0  0  0  0
   -2.3468    3.0189   -0.6031 C   0  0  0  0  0  0  0  0  0  0  0  0
   -1.5228    2.8074    0.5130 C   0  0  0  0  0  0  0  0  0  0  0  0
   -1.0622    1.5305    0.8627 C   0  0  0  0  0  0  0  0  0  0  0  0
   -1.4932    0.4688    0.0493 C   0  0  0  0  0  0  0  0  0  0  0  0
   -2.3150    0.6681   -1.0680 C   0  0  0  0  0  0  0  0  0  0  0  0
   -0.2600    1.2783    1.9763 N   0  0  0  0  0  0  0  0  0  0  0  0
    0.9493    0.4376    1.7613 C   0  0  0  0  0  0  0  0  0  0  0  0
    2.1842    1.3224    1.4693 C   0  0  0  0  0  0  0  0  0  0  0  0
   -0.0595    2.3168    3.0208 C   0  0  0  0  0  0  0  0  0  0  0  0
    1.1914    3.1722    2.7268 C   0  0  0  0  0  0  0  0  0  0  0  0
    2.3677    2.3125    2.5415 N   0  0  0  0  0  0  0  0  0  0  0  0
    3.2189    2.1313    3.6269 C   0  0  0  0  0  0  0  0  0  0  0  0
    3.0706    2.7482    4.6814 O   0  0  0  0  0  0  0  0  0  0  0  0
    4.3527    1.1328    3.4450 C   0  0  0  0  0  0  0  0  0  0  0  0
    5.3244    1.1352    4.6260 C   0  0  0  0  0  0  0  0  0  0  0  0
    6.4647    0.1414    4.4105 C   0  0  0  0  0  0  0  0  0  0  0  0
    7.4268    0.1341    5.5875 C   0  0  0  0  0  0  0  0  0  0  0  0
   -5.0695    1.6526   -0.2185 H   0  0  0  0  0  0  0  0  0  0  0  0
   -6.4376    0.2416    1.2178 H   0  0  0  0  0  0  0  0  0  0  0  0
   -7.8503   -1.5489    0.2459 H   0  0  0  0  0  0  0  0  0  0  0  0
   -7.8511   -1.9423   -2.1796 H   0  0  0  0  0  0  0  0  0  0  0  0
   -6.9082   -1.7068   -4.2684 H   0  0  0  0  0  0  0  0  0  0  0  0
   -7.0453    0.0103   -4.6518 H   0  0  0  0  0  0  0  0  0  0  0  0
   -5.4395   -0.7893   -4.5181 H   0  0  0  0  0  0  0  0  0  0  0  0
   -6.1748    2.7511   -8.5766 H   0  0  0  0  0  0  0  0  0  0  0  0
   -4.7534    3.7746   -8.3991 H   0  0  0  0  0  0  0  0  0  0  0  0
   -6.8206    5.1453   -8.8171 H   0  0  0  0  0  0  0  0  0  0  0  0
   -6.1818    5.4894   -7.1944 H   0  0  0  0  0  0  0  0  0  0  0  0
   -7.5796    4.4369   -7.3710 H   0  0  0  0  0  0  0  0  0  0  0  0
   -2.5646    3.7449   -3.7068 H   0  0  0  0  0  0  0  0  0  0  0  0
   -2.6704    4.0323   -0.8312 H   0  0  0  0  0  0  0  0  0  0  0  0
   -1.2448    3.6838    1.0894 H   0  0  0  0  0  0  0  0  0  0  0  0
   -1.2217   -0.5544    0.2981 H   0  0  0  0  0  0  0  0  0  0  0  0
   -2.6089   -0.1946   -1.6617 H   0  0  0  0  0  0  0  0  0  0  0  0
    0.8315   -0.2952    0.9569 H   0  0  0  0  0  0  0  0  0  0  0  0
    1.1252   -0.1356    2.6813 H   0  0  0  0  0  0  0  0  0  0  0  0
    3.0690    0.6952    1.3435 H   0  0  0  0  0  0  0  0  0  0  0  0
    2.0393    1.8782    0.5351 H   0  0  0  0  0  0  0  0  0  0  0  0
   -0.9476    2.9442    3.1536 H   0  0  0  0  0  0  0  0  0  0  0  0
    0.0843    1.7973    3.9773 H   0  0  0  0  0  0  0  0  0  0  0  0
    1.0634    3.7454    1.8018 H   0  0  0  0  0  0  0  0  0  0  0  0
    1.3518    3.8905    3.5369 H   0  0  0  0  0  0  0  0  0  0  0  0
    3.9187    0.1317    3.3430 H   0  0  0  0  0  0  0  0  0  0  0  0
    4.8962    1.3845    2.5272 H   0  0  0  0  0  0  0  0  0  0  0  0
    5.7340    2.1433    4.7651 H   0  0  0  0  0  0  0  0  0  0  0  0
    4.7858    0.8832    5.5479 H   0  0  0  0  0  0  0  0  0  0  0  0
    6.0590   -0.8674    4.2717 H   0  0  0  0  0  0  0  0  0  0  0  0
    7.0146    0.3983    3.4977 H   0  0  0  0  0  0  0  0  0  0  0  0
    6.9145   -0.1526    6.5110 H   0  0  0  0  0  0  0  0  0  0  0  0
    7.8740    1.1219    5.7355 H   0  0  0  0  0  0  0  0  0  0  0  0
    8.2354   -0.5823    5.4122 H   0  0  0  0  0  0  0  0  0  0  0  0
  1  2  2  0
  2  3  1  0
  3  4  2  0
  4  5  1  0
  5  6  1  0
  5  7  2  0
  7  8  1  0
  8  9  1  0
  9 10  2  0
 10 11  1  0
 11 12  2  0
 11 13  1  0
 13 14  1  0
 14 15  1  0
 10 16  1  0
 16 17  2  0
 17 18  1  0
 18 19  2  0
 19 20  1  0
 20 21  2  0
 21 22  1  0
 22 23  2  0
 21 24  1  0
 24 25  1  0
 25 26  1  0
 24 27  1  0
 27 28  1  0
 28 29  1  0
 29 30  1  0
 30 31  2  0
 30 32  1  0
 32 33  1  0
 33 34  1  0
 34 35  1  0
  7  1  1  0
 17  8  1  0
 23 18  1  0
 29 26  1  0
  1 36  1  0
  2 37  1  0
  3 38  1  0
  4 39  1  0
  6 40  1  0
  6 41  1  0
  6 42  1  0
 14 43  1  0
 14 44  1  0
 15 45  1  0
 15 46  1  0
 15 47  1  0
 16 48  1  0
 19 49  1  0
 20 50  1  0
 22 51  1  0
 23 52  1  0
 25 53  1  0
 25 54  1  0
 26 55  1  0
 26 56  1  0
 27 57  1  0
 27 58  1  0
 28 59  1  0
 28 60  1  0
 32 61  1  0
 32 62  1  0
 33 63  1  0
 33 64  1  0
 34 65  1  0
 34 66  1  0
 35 67  1  0
 35 68  1  0
 35 69  1  0
M  END
>  <mol_id>  (44) 
V016-7668

>  <drugclip_rank>  (44) 
44

>  <conformer>  (44) 
16

>  <align_rmsd>  (44) 
0.716

$$$$
Z26787792
     RDKit          3D

 70 72  0  0  0  0  0  0  0  0999 V2000
    4.1532    3.7840   -1.3274 C   0  0  0  0  0  0  0  0  0  0  0  0
    2.8504    3.4511   -0.6119 C   0  0  0  0  0  0  0  0  0  0  0  0
    2.9920    3.1903    0.8387 N   0  0  0  0  0  0  0  0  0  0  0  0
    3.5210    4.2732    1.6843 C   0  0  0  0  0  0  0  0  0  0  0  0
    2.5128    5.4089    1.8027 C   0  0  0  0  0  0  0  0  0  0  0  0
    3.5317    1.9047    1.1108 C   0  0  0  0  0  0  0  0  0  0  0  0
    4.9041    1.6930    1.3113 C   0  0  0  0  0  0  0  0  0  0  0  0
    5.3985    0.4075    1.5386 C   0  0  0  0  0  0  0  0  0  0  0  0
    4.5194   -0.6785    1.5649 C   0  0  0  0  0  0  0  0  0  0  0  0
    5.1803   -2.3137    1.7826 S   0  0  0  0  0  0  0  0  0  0  0  0
    6.4936   -2.3214    1.1724 O   0  0  0  0  0  0  0  0  0  0  0  0
    4.1803   -3.2861    1.3950 O   0  0  0  0  0  0  0  0  0  0  0  0
    5.3816   -2.4188    3.4838 N   0  0  0  0  0  0  0  0  0  0  0  0
    4.1143   -2.4383    4.2697 C   0  0  0  0  0  0  0  0  0  0  0  0
    4.3367   -1.7664    5.6165 C   0  0  0  0  0  0  0  0  0  0  0  0
    6.3306   -3.4939    3.8973 C   0  0  0  0  0  0  0  0  0  0  0  0
    7.6637   -2.8656    4.2686 C   0  0  0  0  0  0  0  0  0  0  0  0
    3.1492   -0.4986    1.3657 C   0  0  0  0  0  0  0  0  0  0  0  0
    2.6524    0.7900    1.1728 C   0  0  0  0  0  0  0  0  0  0  0  0
    1.2792    1.0867    1.0529 N   0  0  0  0  0  0  0  0  0  0  0  0
    0.2027    0.2453    1.2093 C   0  0  0  0  0  0  0  0  0  0  0  0
    0.2274   -0.9310    1.5466 O   0  0  0  0  0  0  0  0  0  0  0  0
   -1.1156    0.8909    0.9715 C   0  0  0  0  0  0  0  0  0  0  0  0
   -2.2007    0.5422    1.7821 C   0  0  0  0  0  0  0  0  0  0  0  0
   -3.4553    1.1324    1.5782 C   0  0  0  0  0  0  0  0  0  0  0  0
   -3.6359    2.0692    0.5535 C   0  0  0  0  0  0  0  0  0  0  0  0
   -2.5511    2.3760   -0.2878 C   0  0  0  0  0  0  0  0  0  0  0  0
   -1.2966    1.7975   -0.0771 C   0  0  0  0  0  0  0  0  0  0  0  0
   -4.8970    2.6897    0.2977 N   0  0  0  0  0  0  0  0  0  0  0  0
   -5.1077    3.2621   -0.9209 N   0  0  0  0  0  0  0  0  0  0  0  0
   -6.3978    3.5960   -0.9439 C   0  0  0  0  0  0  0  0  0  0  0  0
   -7.0009    4.1809   -2.1643 C   0  0  0  0  0  0  0  0  0  0  0  0
   -7.0078    3.3650    0.3001 C   0  0  0  0  0  0  0  0  0  0  0  0
   -6.0194    2.8354    1.1085 C   0  0  0  0  0  0  0  0  0  0  0  0
   -6.1000    2.5514    2.5641 C   0  0  0  0  0  0  0  0  0  0  0  0
    3.9541    3.9850   -2.3863 H   0  0  0  0  0  0  0  0  0  0  0  0
    4.8678    2.9573   -1.2781 H   0  0  0  0  0  0  0  0  0  0  0  0
    4.6324    4.6766   -0.9109 H   0  0  0  0  0  0  0  0  0  0  0  0
    2.1476    4.2814   -0.7536 H   0  0  0  0  0  0  0  0  0  0  0  0
    2.3827    2.5929   -1.1112 H   0  0  0  0  0  0  0  0  0  0  0  0
    4.4753    4.6579    1.3080 H   0  0  0  0  0  0  0  0  0  0  0  0
    3.7005    3.9008    2.7015 H   0  0  0  0  0  0  0  0  0  0  0  0
    2.8675    6.1540    2.5226 H   0  0  0  0  0  0  0  0  0  0  0  0
    2.3648    5.9222    0.8465 H   0  0  0  0  0  0  0  0  0  0  0  0
    1.5421    5.0395    2.1458 H   0  0  0  0  0  0  0  0  0  0  0  0
    5.6059    2.5207    1.2658 H   0  0  0  0  0  0  0  0  0  0  0  0
    6.4664    0.2546    1.6778 H   0  0  0  0  0  0  0  0  0  0  0  0
    3.3212   -1.8904    3.7547 H   0  0  0  0  0  0  0  0  0  0  0  0
    3.7613   -3.4663    4.4036 H   0  0  0  0  0  0  0  0  0  0  0  0
    3.4012   -1.7349    6.1839 H   0  0  0  0  0  0  0  0  0  0  0  0
    4.6918   -0.7396    5.4849 H   0  0  0  0  0  0  0  0  0  0  0  0
    5.0784   -2.3035    6.2156 H   0  0  0  0  0  0  0  0  0  0  0  0
    5.9467   -4.0546    4.7561 H   0  0  0  0  0  0  0  0  0  0  0  0
    6.4680   -4.2284    3.0982 H   0  0  0  0  0  0  0  0  0  0  0  0
    8.0908   -2.3084    3.4296 H   0  0  0  0  0  0  0  0  0  0  0  0
    7.5512   -2.1706    5.1081 H   0  0  0  0  0  0  0  0  0  0  0  0
    8.3798   -3.6415    4.5601 H   0  0  0  0  0  0  0  0  0  0  0  0
    2.4908   -1.3617    1.3716 H   0  0  0  0  0  0  0  0  0  0  0  0
    1.1135    2.0849    0.9498 H   0  0  0  0  0  0  0  0  0  0  0  0
   -2.0729   -0.1983    2.5702 H   0  0  0  0  0  0  0  0  0  0  0  0
   -4.2716    0.7966    2.2081 H   0  0  0  0  0  0  0  0  0  0  0  0
   -2.6691    3.0753   -1.1148 H   0  0  0  0  0  0  0  0  0  0  0  0
   -0.4833    2.0378   -0.7563 H   0  0  0  0  0  0  0  0  0  0  0  0
   -6.5446    3.7632   -3.0677 H   0  0  0  0  0  0  0  0  0  0  0  0
   -8.0752    3.9768   -2.2072 H   0  0  0  0  0  0  0  0  0  0  0  0
   -6.8606    5.2673   -2.1760 H   0  0  0  0  0  0  0  0  0  0  0  0
   -8.0248    3.5927    0.5894 H   0  0  0  0  0  0  0  0  0  0  0  0
   -6.3775    1.5089    2.7485 H   0  0  0  0  0  0  0  0  0  0  0  0
   -6.8711    3.1879    3.0192 H   0  0  0  0  0  0  0  0  0  0  0  0
   -5.1623    2.7812    3.0790 H   0  0  0  0  0  0  0  0  0  0  0  0
  1  2  1  0
  2  3  1  0
  3  4  1  0
  4  5  1  0
  3  6  1  0
  6  7  2  0
  7  8  1  0
  8  9  2  0
  9 10  1  0
 10 11  2  0
 10 12  2  0
 10 13  1  0
 13 14  1  0
 14 15  1  0
 13 16  1  0
 16 17  1  0
  9 18  1  0
 18 19  2  0
 19 20  1  0
 20 21  1  0
 21 22  2  0
 21 23  1  0
 23 24  2  0
 24 25  1  0
 25 26  2  0
 26 27  1  0
 27 28  2  0
 26 29  1  0
 29 30  1  0
 30 31  2  0
 31 32  1  0
 31 33  1  0
 33 34  2  0
 34 35  1  0
 19  6  1  0
 28 23  1  0
 34 29  1  0
  1 36  1  0
  1 37  1  0
  1 38  1  0
  2 39  1  0
  2 40  1  0
  4 41  1  0
  4 42  1  0
  5 43  1  0
  5 44  1  0
  5 45  1  0
  7 46  1  0
  8 47  1  0
 14 48  1  0
 14 49  1  0
 15 50  1  0
 15 51  1  0
 15 52  1  0
 16 53  1  0
 16 54  1  0
 17 55  1  0
 17 56  1  0
 17 57  1  0
 18 58  1  0
 20 59  1  0
 24 60  1  0
 25 61  1  0
 27 62  1  0
 28 63  1  0
 32 64  1  0
 32 65  1  0
 32 66  1  0
 33 67  1  0
 35 68  1  0
 35 69  1  0
 35 70  1  0
M  END
>  <mol_id>  (45) 
Z26787792

>  <drugclip_rank>  (45) 
45

>  <conformer>  (45) 
16

>  <align_rmsd>  (45) 
0.483

$$$$
OSSK_595240
     RDKit          3D

 71 74  0  0  0  0  0  0  0  0999 V2000
   -7.5997    6.0155   -0.1357 C   0  0  0  0  0  0  0  0  0  0  0  0
   -6.5020    5.0723    0.3287 C   0  0  0  0  0  0  0  0  0  0  0  0
   -6.8595    3.6116    0.0419 C   0  0  0  0  0  0  0  0  0  0  0  0
   -5.7684    2.6490    0.5099 C   0  0  0  0  0  0  0  0  0  0  0  0
   -4.5811    2.9054   -0.2395 O   0  0  0  0  0  0  0  0  0  0  0  0
   -3.4647    2.1908    0.0911 C   0  0  0  0  0  0  0  0  0  0  0  0
   -3.3880    1.1785    1.0467 C   0  0  0  0  0  0  0  0  0  0  0  0
   -2.1678    0.5375    1.2940 C   0  0  0  0  0  0  0  0  0  0  0  0
   -2.3203    2.5392   -0.6317 C   0  0  0  0  0  0  0  0  0  0  0  0
   -1.1005    1.9017   -0.3913 C   0  0  0  0  0  0  0  0  0  0  0  0
   -1.0156    0.9077    0.5903 C   0  0  0  0  0  0  0  0  0  0  0  0
    0.2678    0.2134    0.9013 C   0  0  0  0  0  0  0  0  0  0  0  0
    0.2306   -0.9389    1.3165 O   0  0  0  0  0  0  0  0  0  0  0  0
    1.3964    0.9860    0.7413 N   0  0  0  0  0  0  0  0  0  0  0  0
    2.7483    0.6116    0.8943 C   0  0  0  0  0  0  0  0  0  0  0  0
    3.6907    1.6709    0.8191 C   0  0  0  0  0  0  0  0  0  0  0  0
    5.0529    1.3610    0.9153 C   0  0  0  0  0  0  0  0  0  0  0  0
    5.4752    0.0371    1.0735 C   0  0  0  0  0  0  0  0  0  0  0  0
    4.5400   -1.0028    1.1461 C   0  0  0  0  0  0  0  0  0  0  0  0
    3.1730   -0.7093    1.0602 C   0  0  0  0  0  0  0  0  0  0  0  0
    4.9491   -2.4273    1.3033 C   0  0  0  0  0  0  0  0  0  0  0  0
    4.1648   -3.3590    1.3807 O   0  0  0  0  0  0  0  0  0  0  0  0
    6.3028   -2.5309    1.3388 O   0  0  0  0  0  0  0  0  0  0  0  0
    6.7772   -3.8709    1.4806 C   0  0  0  0  0  0  0  0  0  0  0  0
    3.2164    2.9999    0.7027 N   0  0  0  0  0  0  0  0  0  0  0  0
    3.9505    3.8791   -0.2304 C   0  0  0  0  0  0  0  0  0  0  0  0
    3.3077    5.2793   -0.2508 C   0  0  0  0  0  0  0  0  0  0  0  0
    2.9015    3.6014    2.0313 C   0  0  0  0  0  0  0  0  0  0  0  0
    3.5127    5.0011    2.2193 C   0  0  0  0  0  0  0  0  0  0  0  0
    3.2634    5.8955    1.0847 N   0  0  0  0  0  0  0  0  0  0  0  0
    3.2459    7.2668    1.3208 C   0  0  0  0  0  0  0  0  0  0  0  0
    3.4635    7.7633    2.4242 O   0  0  0  0  0  0  0  0  0  0  0  0
    2.9627    8.1833    0.1935 C   0  0  0  0  0  0  0  0  0  0  0  0
    1.7860    8.0643   -0.5538 C   0  0  0  0  0  0  0  0  0  0  0  0
    1.5405    8.9526   -1.6018 C   0  0  0  0  0  0  0  0  0  0  0  0
    2.4597    9.9631   -1.8900 C   0  0  0  0  0  0  0  0  0  0  0  0
    3.6195   10.0979   -1.1246 C   0  0  0  0  0  0  0  0  0  0  0  0
    3.8703    9.2126   -0.0766 C   0  0  0  0  0  0  0  0  0  0  0  0
   -8.5469    5.7965    0.3669 H   0  0  0  0  0  0  0  0  0  0  0  0
   -7.3284    7.0517    0.0878 H   0  0  0  0  0  0  0  0  0  0  0  0
   -7.7572    5.9307   -1.2155 H   0  0  0  0  0  0  0  0  0  0  0  0
   -5.5667    5.3413   -0.1757 H   0  0  0  0  0  0  0  0  0  0  0  0
   -6.3418    5.2099    1.4047 H   0  0  0  0  0  0  0  0  0  0  0  0
   -7.8011    3.3567    0.5423 H   0  0  0  0  0  0  0  0  0  0  0  0
   -7.0107    3.4888   -1.0380 H   0  0  0  0  0  0  0  0  0  0  0  0
   -6.1032    1.6215    0.3281 H   0  0  0  0  0  0  0  0  0  0  0  0
   -5.5881    2.7949    1.5808 H   0  0  0  0  0  0  0  0  0  0  0  0
   -4.2552    0.8603    1.6166 H   0  0  0  0  0  0  0  0  0  0  0  0
   -2.1173   -0.2507    2.0431 H   0  0  0  0  0  0  0  0  0  0  0  0
   -2.3836    3.3130   -1.3930 H   0  0  0  0  0  0  0  0  0  0  0  0
   -0.2397    2.1781   -0.9924 H   0  0  0  0  0  0  0  0  0  0  0  0
    1.2958    1.9786    0.5499 H   0  0  0  0  0  0  0  0  0  0  0  0
    5.8076    2.1406    0.8942 H   0  0  0  0  0  0  0  0  0  0  0  0
    6.5408   -0.1662    1.1448 H   0  0  0  0  0  0  0  0  0  0  0  0
    2.4567   -1.5250    1.1054 H   0  0  0  0  0  0  0  0  0  0  0  0
    6.5038   -4.2662    2.4635 H   0  0  0  0  0  0  0  0  0  0  0  0
    6.3872   -4.5107    0.6829 H   0  0  0  0  0  0  0  0  0  0  0  0
    7.8680   -3.8536    1.4049 H   0  0  0  0  0  0  0  0  0  0  0  0
    3.9176    3.4542   -1.2403 H   0  0  0  0  0  0  0  0  0  0  0  0
    5.0019    3.9841    0.0605 H   0  0  0  0  0  0  0  0  0  0  0  0
    3.8568    5.9277   -0.9405 H   0  0  0  0  0  0  0  0  0  0  0  0
    2.2723    5.1991   -0.5998 H   0  0  0  0  0  0  0  0  0  0  0  0
    3.2269    2.9626    2.8617 H   0  0  0  0  0  0  0  0  0  0  0  0
    1.8100    3.6860    2.0974 H   0  0  0  0  0  0  0  0  0  0  0  0
    4.6018    4.9210    2.3238 H   0  0  0  0  0  0  0  0  0  0  0  0
    3.1329    5.4483    3.1442 H   0  0  0  0  0  0  0  0  0  0  0  0
    1.0546    7.2979   -0.3116 H   0  0  0  0  0  0  0  0  0  0  0  0
    0.6288    8.8669   -2.1887 H   0  0  0  0  0  0  0  0  0  0  0  0
    2.2657   10.6585   -2.7035 H   0  0  0  0  0  0  0  0  0  0  0  0
    4.3233   10.8984   -1.3409 H   0  0  0  0  0  0  0  0  0  0  0  0
    4.7663    9.3252    0.5286 H   0  0  0  0  0  0  0  0  0  0  0  0
  1  2  1  0
  2  3  1  0
  3  4  1  0
  4  5  1  0
  5  6  1  0
  6  7  2  0
  7  8  1  0
  6  9  1  0
  9 10  2  0
 10 11  1  0
 11 12  1  0
 12 13  2  0
 12 14  1  0
 14 15  1  0
 15 16  1  0
 16 17  2  0
 17 18  1  0
 18 19  2  0
 19 20  1  0
 19 21  1  0
 21 22  2  0
 21 23  1  0
 23 24  1  0
 16 25  1  0
 25 26  1  0
 26 27  1  0
 25 28  1  0
 28 29  1  0
 29 30  1  0
 30 31  1  0
 31 32  2  0
 31 33  1  0
 33 34  2  0
 34 35  1  0
 35 36  2  0
 36 37  1  0
 37 38  2  0
 11  8  2  0
 20 15  2  0
 30 27  1  0
 38 33  1  0
  1 39  1  0
  1 40  1  0
  1 41  1  0
  2 42  1  0
  2 43  1  0
  3 44  1  0
  3 45  1  0
  4 46  1  0
  4 47  1  0
  7 48  1  0
  8 49  1  0
  9 50  1  0
 10 51  1  0
 14 52  1  0
 17 53  1  0
 18 54  1  0
 20 55  1  0
 24 56  1  0
 24 57  1  0
 24 58  1  0
 26 59  1  0
 26 60  1  0
 27 61  1  0
 27 62  1  0
 28 63  1  0
 28 64  1  0
 29 65  1  0
 29 66  1  0
 34 67  1  0
 35 68  1  0
 36 69  1  0
 37 70  1  0
 38 71  1  0
M  END
>  <mol_id>  (46) 
OSSK_595240

>  <drugclip_rank>  (46) 
46

>  <conformer>  (46) 
12

>  <align_rmsd>  (46) 
0.625

$$$$
V025-8049
     RDKit          3D

 70 74  0  0  0  0  0  0  0  0999 V2000
   -7.3331    1.9506   -1.6985 C   0  0  0  0  0  0  0  0  0  0  0  0
   -8.0326    0.9416   -2.3638 C   0  0  0  0  0  0  0  0  0  0  0  0
   -7.3369   -0.0817   -3.0042 C   0  0  0  0  0  0  0  0  0  0  0  0
   -5.9402   -0.0952   -2.9841 C   0  0  0  0  0  0  0  0  0  0  0  0
   -5.2222    0.9240   -2.3371 C   0  0  0  0  0  0  0  0  0  0  0  0
   -3.7192    0.8603   -2.3176 C   0  0  0  0  0  0  0  0  0  0  0  0
   -5.9311    1.9403   -1.6713 C   0  0  0  0  0  0  0  0  0  0  0  0
   -5.1812    2.9193   -1.0465 O   0  0  0  0  0  0  0  0  0  0  0  0
   -5.7410    3.5867    0.0243 C   0  0  0  0  0  0  0  0  0  0  0  0
   -6.2494    4.9415   -0.2046 C   0  0  0  0  0  0  0  0  0  0  0  0
   -6.7850    5.7131    0.6774 N   0  0  0  0  0  0  0  0  0  0  0  0
   -6.9071    5.2327    1.9695 N   0  0  0  0  0  0  0  0  0  0  0  0
   -7.5054    6.1810    2.8773 C   0  0  0  0  0  0  0  0  0  0  0  0
   -7.9824    7.4197    2.3923 C   0  0  0  0  0  0  0  0  0  0  0  0
   -8.5507    8.3763    3.2434 C   0  0  0  0  0  0  0  0  0  0  0  0
   -8.6579    8.1048    4.5984 C   0  0  0  0  0  0  0  0  0  0  0  0
   -9.1894    9.0205    5.4197 F   0  0  0  0  0  0  0  0  0  0  0  0
   -8.1965    6.9041    5.1136 C   0  0  0  0  0  0  0  0  0  0  0  0
   -7.6249    5.9499    4.2591 C   0  0  0  0  0  0  0  0  0  0  0  0
   -6.4981    3.9424    2.3325 C   0  0  0  0  0  0  0  0  0  0  0  0
   -6.6601    3.3913    3.4250 O   0  0  0  0  0  0  0  0  0  0  0  0
   -5.7792    3.1212    1.2817 C   0  0  0  0  0  0  0  0  0  0  0  0
   -5.2877    1.8931    1.7332 N   0  0  0  0  0  0  0  0  0  0  0  0
   -3.9316    1.4862    1.6896 C   0  0  0  0  0  0  0  0  0  0  0  0
   -3.6191    0.1954    2.1411 C   0  0  0  0  0  0  0  0  0  0  0  0
   -2.3027   -0.2767    2.1259 C   0  0  0  0  0  0  0  0  0  0  0  0
   -2.8897    2.2879    1.2061 C   0  0  0  0  0  0  0  0  0  0  0  0
   -1.5686    1.8215    1.1876 C   0  0  0  0  0  0  0  0  0  0  0  0
   -1.2709    0.5319    1.6410 C   0  0  0  0  0  0  0  0  0  0  0  0
    0.1194   -0.0023    1.6602 C   0  0  0  0  0  0  0  0  0  0  0  0
    0.4354   -0.8706    2.4674 O   0  0  0  0  0  0  0  0  0  0  0  0
    0.9925    0.5091    0.7208 N   0  0  0  0  0  0  0  0  0  0  0  0
    2.3676    0.0432    0.6421 C   0  0  0  0  0  0  0  0  0  0  0  0
    3.2681    0.7157    1.6979 C   0  0  0  0  0  0  0  0  0  0  0  0
    4.6895    0.3380    1.7322 N   0  0  0  0  0  0  0  0  0  0  0  0
    4.8932   -1.0764    2.1009 C   0  0  0  0  0  0  0  0  0  0  0  0
    6.3921   -1.4084    2.1884 C   0  0  0  0  0  0  0  0  0  0  0  0
    7.0586   -1.1263    0.9488 O   0  0  0  0  0  0  0  0  0  0  0  0
    6.8992    0.2591    0.6117 C   0  0  0  0  0  0  0  0  0  0  0  0
    5.4116    0.6288    0.4821 C   0  0  0  0  0  0  0  0  0  0  0  0
   -7.9098    2.7350   -1.2169 H   0  0  0  0  0  0  0  0  0  0  0  0
   -9.1222    0.9539   -2.3822 H   0  0  0  0  0  0  0  0  0  0  0  0
   -7.8803   -0.8743   -3.5134 H   0  0  0  0  0  0  0  0  0  0  0  0
   -5.4127   -0.9089   -3.4787 H   0  0  0  0  0  0  0  0  0  0  0  0
   -3.2722    1.8612   -2.2895 H   0  0  0  0  0  0  0  0  0  0  0  0
   -3.3753    0.2898   -1.4491 H   0  0  0  0  0  0  0  0  0  0  0  0
   -3.3399    0.3757   -3.2238 H   0  0  0  0  0  0  0  0  0  0  0  0
   -6.1521    5.3148   -1.2381 H   0  0  0  0  0  0  0  0  0  0  0  0
   -7.9224    7.6638    1.3350 H   0  0  0  0  0  0  0  0  0  0  0  0
   -8.9096    9.3230    2.8520 H   0  0  0  0  0  0  0  0  0  0  0  0
   -8.2725    6.7122    6.1792 H   0  0  0  0  0  0  0  0  0  0  0  0
   -7.2559    5.0451    4.7271 H   0  0  0  0  0  0  0  0  0  0  0  0
   -5.6640    1.7014    2.6693 H   0  0  0  0  0  0  0  0  0  0  0  0
   -4.4073   -0.4583    2.5100 H   0  0  0  0  0  0  0  0  0  0  0  0
   -2.0869   -1.2794    2.4923 H   0  0  0  0  0  0  0  0  0  0  0  0
   -3.0764    3.3009    0.8607 H   0  0  0  0  0  0  0  0  0  0  0  0
   -0.7878    2.4937    0.8456 H   0  0  0  0  0  0  0  0  0  0  0  0
    0.6510    1.1104   -0.0165 H   0  0  0  0  0  0  0  0  0  0  0  0
    2.7122    0.2730   -0.3706 H   0  0  0  0  0  0  0  0  0  0  0  0
    2.3652   -1.0448    0.7640 H   0  0  0  0  0  0  0  0  0  0  0  0
    2.8448    0.5434    2.6963 H   0  0  0  0  0  0  0  0  0  0  0  0
    3.2084    1.8030    1.5581 H   0  0  0  0  0  0  0  0  0  0  0  0
    4.4284   -1.2863    3.0711 H   0  0  0  0  0  0  0  0  0  0  0  0
    4.4379   -1.7360    1.3521 H   0  0  0  0  0  0  0  0  0  0  0  0
    6.5229   -2.4750    2.3988 H   0  0  0  0  0  0  0  0  0  0  0  0
    6.8775   -0.8459    2.9962 H   0  0  0  0  0  0  0  0  0  0  0  0
    7.4014    0.8751    1.3683 H   0  0  0  0  0  0  0  0  0  0  0  0
    7.4065    0.4270   -0.3447 H   0  0  0  0  0  0  0  0  0  0  0  0
    4.9870    0.0539   -0.3501 H   0  0  0  0  0  0  0  0  0  0  0  0
    5.3313    1.6945    0.2391 H   0  0  0  0  0  0  0  0  0  0  0  0
  1  2  2  0
  2  3  1  0
  3  4  2  0
  4  5  1  0
  5  6  1  0
  5  7  2  0
  7  8  1  0
  8  9  1  0
  9 10  1  0
 10 11  2  0
 11 12  1  0
 12 13  1  0
 13 14  2  0
 14 15  1  0
 15 16  2  0
 16 17  1  0
 16 18  1  0
 18 19  2  0
 12 20  1  0
 20 21  2  0
 20 22  1  0
 22 23  1  0
 23 24  1  0
 24 25  2  0
 25 26  1  0
 24 27  1  0
 27 28  2  0
 28 29  1  0
 29 30  1  0
 30 31  2  0
 30 32  1  0
 32 33  1  0
 33 34  1  0
 34 35  1  0
 35 36  1  0
 36 37  1  0
 37 38  1  0
 38 39  1  0
 39 40  1  0
  7  1  1  0
 22  9  2  0
 19 13  1  0
 29 26  2  0
 40 35  1  0
  1 41  1  0
  2 42  1  0
  3 43  1  0
  4 44  1  0
  6 45  1  0
  6 46  1  0
  6 47  1  0
 10 48  1  0
 14 49  1  0
 15 50  1  0
 18 51  1  0
 19 52  1  0
 23 53  1  0
 25 54  1  0
 26 55  1  0
 27 56  1  0
 28 57  1  0
 32 58  1  0
 33 59  1  0
 33 60  1  0
 34 61  1  0
 34 62  1  0
 36 63  1  0
 36 64  1  0
 37 65  1  0
 37 66  1  0
 39 67  1  0
 39 68  1  0
 40 69  1  0
 40 70  1  0
M  END
>  <mol_id>  (47) 
V025-8049

>  <drugclip_rank>  (47) 
47

>  <conformer>  (47) 
8

>  <align_rmsd>  (47) 
1.209

$$$$
STK219917
     RDKit          3D

 74 77  0  0  0  0  0  0  0  0999 V2000
   -1.9826    0.9034    0.0126 C   0  0  0  0  0  0  0  0  0  0  0  0
   -2.6426    1.0741   -1.2132 C   0  0  0  0  0  0  0  0  0  0  0  0
   -2.8781   -0.0959   -2.1208 C   0  0  0  0  0  0  0  0  0  0  0  0
   -3.0352    2.3548   -1.6023 C   0  0  0  0  0  0  0  0  0  0  0  0
   -2.7853    3.4473   -0.7731 C   0  0  0  0  0  0  0  0  0  0  0  0
   -2.1282    3.2880    0.4622 C   0  0  0  0  0  0  0  0  0  0  0  0
   -1.8650    4.5001    1.3489 C   0  0  0  0  0  0  0  0  0  0  0  0
   -3.1576    4.9904    2.0034 C   0  0  0  0  0  0  0  0  0  0  0  0
   -1.1746    5.6359    0.5868 C   0  0  0  0  0  0  0  0  0  0  0  0
   -1.7441    1.9919    0.8620 C   0  0  0  0  0  0  0  0  0  0  0  0
   -1.1259    1.8972    2.0831 O   0  0  0  0  0  0  0  0  0  0  0  0
   -0.9680    0.6112    2.6677 C   0  0  0  0  0  0  0  0  0  0  0  0
    0.3133   -0.1258    2.2598 C   0  0  0  0  0  0  0  0  0  0  0  0
    0.4151   -1.3398    2.4147 O   0  0  0  0  0  0  0  0  0  0  0  0
    1.2842    0.7221    1.7775 N   0  0  0  0  0  0  0  0  0  0  0  0
    2.5994    0.4304    1.3639 C   0  0  0  0  0  0  0  0  0  0  0  0
    3.3462    1.5325    0.8763 C   0  0  0  0  0  0  0  0  0  0  0  0
    4.6618    1.3178    0.4459 C   0  0  0  0  0  0  0  0  0  0  0  0
    5.2267    0.0413    0.4903 C   0  0  0  0  0  0  0  0  0  0  0  0
    4.4866   -1.0415    0.9795 C   0  0  0  0  0  0  0  0  0  0  0  0
    3.1695   -0.8417    1.4192 C   0  0  0  0  0  0  0  0  0  0  0  0
    5.0616   -2.4121    1.0612 C   0  0  0  0  0  0  0  0  0  0  0  0
    4.4465   -3.3845    1.4674 O   0  0  0  0  0  0  0  0  0  0  0  0
    6.3434   -2.4206    0.6144 O   0  0  0  0  0  0  0  0  0  0  0  0
    6.9663   -3.7059    0.6488 C   0  0  0  0  0  0  0  0  0  0  0  0
    2.7521    2.8204    0.9008 N   0  0  0  0  0  0  0  0  0  0  0  0
    2.8122    3.5620   -0.3833 C   0  0  0  0  0  0  0  0  0  0  0  0
    2.9262    5.0865   -0.1858 C   0  0  0  0  0  0  0  0  0  0  0  0
    3.1441    3.5952    2.1056 C   0  0  0  0  0  0  0  0  0  0  0  0
    4.3017    4.5653    1.8279 C   0  0  0  0  0  0  0  0  0  0  0  0
    4.0508    5.4493    0.6873 N   0  0  0  0  0  0  0  0  0  0  0  0
    4.9944    6.4302    0.4143 C   0  0  0  0  0  0  0  0  0  0  0  0
    6.0471    6.5470    1.0358 O   0  0  0  0  0  0  0  0  0  0  0  0
    4.7242    7.3776   -0.6850 C   0  0  0  0  0  0  0  0  0  0  0  0
    3.6448    8.2645   -0.5980 C   0  0  0  0  0  0  0  0  0  0  0  0
    3.3999    9.1473   -1.6488 C   0  0  0  0  0  0  0  0  0  0  0  0
    4.2318    9.1426   -2.7725 C   0  0  0  0  0  0  0  0  0  0  0  0
    5.3179    8.2657   -2.8458 C   0  0  0  0  0  0  0  0  0  0  0  0
    5.5709    7.3840   -1.7961 C   0  0  0  0  0  0  0  0  0  0  0  0
   -1.6600   -0.0998    0.2761 H   0  0  0  0  0  0  0  0  0  0  0  0
   -3.7921    0.0423   -2.7065 H   0  0  0  0  0  0  0  0  0  0  0  0
   -2.9965   -1.0187   -1.5438 H   0  0  0  0  0  0  0  0  0  0  0  0
   -2.0360   -0.2134   -2.8053 H   0  0  0  0  0  0  0  0  0  0  0  0
   -3.5364    2.5096   -2.5551 H   0  0  0  0  0  0  0  0  0  0  0  0
   -3.1130    4.4308   -1.1012 H   0  0  0  0  0  0  0  0  0  0  0  0
   -1.1769    4.2204    2.1537 H   0  0  0  0  0  0  0  0  0  0  0  0
   -3.8810    5.3410    1.2590 H   0  0  0  0  0  0  0  0  0  0  0  0
   -3.6334    4.1890    2.5797 H   0  0  0  0  0  0  0  0  0  0  0  0
   -2.9525    5.8218    2.6884 H   0  0  0  0  0  0  0  0  0  0  0  0
   -1.8436    6.1087   -0.1392 H   0  0  0  0  0  0  0  0  0  0  0  0
   -0.8366    6.4127    1.2798 H   0  0  0  0  0  0  0  0  0  0  0  0
   -0.2985    5.2651    0.0473 H   0  0  0  0  0  0  0  0  0  0  0  0
   -0.9015    0.7666    3.7505 H   0  0  0  0  0  0  0  0  0  0  0  0
   -1.8435   -0.0265    2.5000 H   0  0  0  0  0  0  0  0  0  0  0  0
    1.0234    1.6976    1.6368 H   0  0  0  0  0  0  0  0  0  0  0  0
    5.2727    2.1422    0.0885 H   0  0  0  0  0  0  0  0  0  0  0  0
    6.2524   -0.0871    0.1513 H   0  0  0  0  0  0  0  0  0  0  0  0
    2.6161   -1.6849    1.8132 H   0  0  0  0  0  0  0  0  0  0  0  0
    7.0567   -4.0568    1.6811 H   0  0  0  0  0  0  0  0  0  0  0  0
    6.4071   -4.4236    0.0392 H   0  0  0  0  0  0  0  0  0  0  0  0
    7.9721   -3.6029    0.2300 H   0  0  0  0  0  0  0  0  0  0  0  0
    3.6527    3.2397   -1.0111 H   0  0  0  0  0  0  0  0  0  0  0  0
    1.8930    3.3442   -0.9428 H   0  0  0  0  0  0  0  0  0  0  0  0
    3.0129    5.5653   -1.1644 H   0  0  0  0  0  0  0  0  0  0  0  0
    2.0227    5.4719    0.2958 H   0  0  0  0  0  0  0  0  0  0  0  0
    2.2647    4.1726    2.4140 H   0  0  0  0  0  0  0  0  0  0  0  0
    3.3891    2.9398    2.9504 H   0  0  0  0  0  0  0  0  0  0  0  0
    5.2230    4.0118    1.6138 H   0  0  0  0  0  0  0  0  0  0  0  0
    4.4945    5.1864    2.7117 H   0  0  0  0  0  0  0  0  0  0  0  0
    3.0109    8.2760    0.2849 H   0  0  0  0  0  0  0  0  0  0  0  0
    2.5688    9.8462   -1.5930 H   0  0  0  0  0  0  0  0  0  0  0  0
    4.0407    9.8352   -3.5894 H   0  0  0  0  0  0  0  0  0  0  0  0
    5.9684    8.2737   -3.7189 H   0  0  0  0  0  0  0  0  0  0  0  0
    6.4183    6.7036   -1.8408 H   0  0  0  0  0  0  0  0  0  0  0  0
  1  2  2  0
  2  3  1  0
  2  4  1  0
  4  5  2  0
  5  6  1  0
  6  7  1  0
  7  8  1  0
  7  9  1  0
  6 10  2  0
 10 11  1  0
 11 12  1  0
 12 13  1  0
 13 14  2  0
 13 15  1  0
 15 16  1  0
 16 17  1  0
 17 18  2  0
 18 19  1  0
 19 20  2  0
 20 21  1  0
 20 22  1  0
 22 23  2  0
 22 24  1  0
 24 25  1  0
 17 26  1  0
 26 27  1  0
 27 28  1  0
 26 29  1  0
 29 30  1  0
 30 31  1  0
 31 32  1  0
 32 33  2  0
 32 34  1  0
 34 35  2  0
 35 36  1  0
 36 37  2  0
 37 38  1  0
 38 39  2  0
 10  1  1  0
 21 16  2  0
 31 28  1  0
 39 34  1  0
  1 40  1  0
  3 41  1  0
  3 42  1  0
  3 43  1  0
  4 44  1  0
  5 45  1  0
  7 46  1  0
  8 47  1  0
  8 48  1  0
  8 49  1  0
  9 50  1  0
  9 51  1  0
  9 52  1  0
 12 53  1  0
 12 54  1  0
 15 55  1  0
 18 56  1  0
 19 57  1  0
 21 58  1  0
 25 59  1  0
 25 60  1  0
 25 61  1  0
 27 62  1  0
 27 63  1  0
 28 64  1  0
 28 65  1  0
 29 66  1  0
 29 67  1  0
 30 68  1  0
 30 69  1  0
 35 70  1  0
 36 71  1  0
 37 72  1  0
 38 73  1  0
 39 74  1  0
M  END
>  <mol_id>  (48) 
STK219917

>  <drugclip_rank>  (48) 
48

>  <conformer>  (48) 
14

>  <align_rmsd>  (48) 
0.688

$$$$
OSSK_595228
     RDKit          3D

 74 77  0  0  0  0  0  0  0  0999 V2000
   -1.9826    0.9034    0.0126 C   0  0  0  0  0  0  0  0  0  0  0  0
   -2.6426    1.0741   -1.2132 C   0  0  0  0  0  0  0  0  0  0  0  0
   -2.8781   -0.0959   -2.1208 C   0  0  0  0  0  0  0  0  0  0  0  0
   -3.0352    2.3548   -1.6023 C   0  0  0  0  0  0  0  0  0  0  0  0
   -2.7853    3.4473   -0.7731 C   0  0  0  0  0  0  0  0  0  0  0  0
   -2.1282    3.2880    0.4622 C   0  0  0  0  0  0  0  0  0  0  0  0
   -1.8650    4.5001    1.3489 C   0  0  0  0  0  0  0  0  0  0  0  0
   -3.1576    4.9904    2.0034 C   0  0  0  0  0  0  0  0  0  0  0  0
   -1.1746    5.6359    0.5868 C   0  0  0  0  0  0  0  0  0  0  0  0
   -1.7441    1.9919    0.8620 C   0  0  0  0  0  0  0  0  0  0  0  0
   -1.1259    1.8972    2.0831 O   0  0  0  0  0  0  0  0  0  0  0  0
   -0.9680    0.6112    2.6677 C   0  0  0  0  0  0  0  0  0  0  0  0
    0.3133   -0.1258    2.2598 C   0  0  0  0  0  0  0  0  0  0  0  0
    0.4151   -1.3398    2.4147 O   0  0  0  0  0  0  0  0  0  0  0  0
    1.2842    0.7221    1.7775 N   0  0  0  0  0  0  0  0  0  0  0  0
    2.5994    0.4304    1.3639 C   0  0  0  0  0  0  0  0  0  0  0  0
    3.3462    1.5325    0.8763 C   0  0  0  0  0  0  0  0  0  0  0  0
    4.6618    1.3178    0.4459 C   0  0  0  0  0  0  0  0  0  0  0  0
    5.2267    0.0413    0.4903 C   0  0  0  0  0  0  0  0  0  0  0  0
    4.4866   -1.0415    0.9795 C   0  0  0  0  0  0  0  0  0  0  0  0
    3.1695   -0.8417    1.4192 C   0  0  0  0  0  0  0  0  0  0  0  0
    5.0616   -2.4121    1.0612 C   0  0  0  0  0  0  0  0  0  0  0  0
    4.4465   -3.3845    1.4674 O   0  0  0  0  0  0  0  0  0  0  0  0
    6.3434   -2.4206    0.6144 O   0  0  0  0  0  0  0  0  0  0  0  0
    6.9663   -3.7059    0.6488 C   0  0  0  0  0  0  0  0  0  0  0  0
    2.7521    2.8204    0.9008 N   0  0  0  0  0  0  0  0  0  0  0  0
    2.8122    3.5620   -0.3833 C   0  0  0  0  0  0  0  0  0  0  0  0
    2.9262    5.0865   -0.1858 C   0  0  0  0  0  0  0  0  0  0  0  0
    3.1441    3.5952    2.1056 C   0  0  0  0  0  0  0  0  0  0  0  0
    4.3017    4.5653    1.8279 C   0  0  0  0  0  0  0  0  0  0  0  0
    4.0508    5.4493    0.6873 N   0  0  0  0  0  0  0  0  0  0  0  0
    4.9944    6.4302    0.4143 C   0  0  0  0  0  0  0  0  0  0  0  0
    6.0471    6.5470    1.0358 O   0  0  0  0  0  0  0  0  0  0  0  0
    4.7242    7.3776   -0.6850 C   0  0  0  0  0  0  0  0  0  0  0  0
    3.6448    8.2645   -0.5980 C   0  0  0  0  0  0  0  0  0  0  0  0
    3.3999    9.1473   -1.6488 C   0  0  0  0  0  0  0  0  0  0  0  0
    4.2318    9.1426   -2.7725 C   0  0  0  0  0  0  0  0  0  0  0  0
    5.3179    8.2657   -2.8458 C   0  0  0  0  0  0  0  0  0  0  0  0
    5.5709    7.3840   -1.7961 C   0  0  0  0  0  0  0  0  0  0  0  0
   -1.6600   -0.0998    0.2761 H   0  0  0  0  0  0  0  0  0  0  0  0
   -3.7921    0.0423   -2.7065 H   0  0  0  0  0  0  0  0  0  0  0  0
   -2.9965   -1.0187   -1.5438 H   0  0  0  0  0  0  0  0  0  0  0  0
   -2.0360   -0.2134   -2.8053 H   0  0  0  0  0  0  0  0  0  0  0  0
   -3.5364    2.5096   -2.5551 H   0  0  0  0  0  0  0  0  0  0  0  0
   -3.1130    4.4308   -1.1012 H   0  0  0  0  0  0  0  0  0  0  0  0
   -1.1769    4.2204    2.1537 H   0  0  0  0  0  0  0  0  0  0  0  0
   -3.8810    5.3410    1.2590 H   0  0  0  0  0  0  0  0  0  0  0  0
   -3.6334    4.1890    2.5797 H   0  0  0  0  0  0  0  0  0  0  0  0
   -2.9525    5.8218    2.6884 H   0  0  0  0  0  0  0  0  0  0  0  0
   -1.8436    6.1087   -0.1392 H   0  0  0  0  0  0  0  0  0  0  0  0
   -0.8366    6.4127    1.2798 H   0  0  0  0  0  0  0  0  0  0  0  0
   -0.2985    5.2651    0.0473 H   0  0  0  0  0  0  0  0  0  0  0  0
   -0.9015    0.7666    3.7505 H   0  0  0  0  0  0  0  0  0  0  0  0
   -1.8435   -0.0265    2.5000 H   0  0  0  0  0  0  0  0  0  0  0  0
    1.0234    1.6976    1.6368 H   0  0  0  0  0  0  0  0  0  0  0  0
    5.2727    2.1422    0.0885 H   0  0  0  0  0  0  0  0  0  0  0  0
    6.2524   -0.0871    0.1513 H   0  0  0  0  0  0  0  0  0  0  0  0
    2.6161   -1.6849    1.8132 H   0  0  0  0  0  0  0  0  0  0  0  0
    7.0567   -4.0568    1.6811 H   0  0  0  0  0  0  0  0  0  0  0  0
    6.4071   -4.4236    0.0392 H   0  0  0  0  0  0  0  0  0  0  0  0
    7.9721   -3.6029    0.2300 H   0  0  0  0  0  0  0  0  0  0  0  0
    3.6527    3.2397   -1.0111 H   0  0  0  0  0  0  0  0  0  0  0  0
    1.8930    3.3442   -0.9428 H   0  0  0  0  0  0  0  0  0  0  0  0
    3.0129    5.5653   -1.1644 H   0  0  0  0  0  0  0  0  0  0  0  0
    2.0227    5.4719    0.2958 H   0  0  0  0  0  0  0  0  0  0  0  0
    2.2647    4.1726    2.4140 H   0  0  0  0  0  0  0  0  0  0  0  0
    3.3891    2.9398    2.9504 H   0  0  0  0  0  0  0  0  0  0  0  0
    5.2230    4.0118    1.6138 H   0  0  0  0  0  0  0  0  0  0  0  0
    4.4945    5.1864    2.7117 H   0  0  0  0  0  0  0  0  0  0  0  0
    3.0109    8.2760    0.2849 H   0  0  0  0  0  0  0  0  0  0  0  0
    2.5688    9.8462   -1.5930 H   0  0  0  0  0  0  0  0  0  0  0  0
    4.0407    9.8352   -3.5894 H   0  0  0  0  0  0  0  0  0  0  0  0
    5.9684    8.2737   -3.7189 H   0  0  0  0  0  0  0  0  0  0  0  0
    6.4183    6.7036   -1.8408 H   0  0  0  0  0  0  0  0  0  0  0  0
  1  2  2  0
  2  3  1  0
  2  4  1  0
  4  5  2  0
  5  6  1  0
  6  7  1  0
  7  8  1  0
  7  9  1  0
  6 10  2  0
 10 11  1  0
 11 12  1  0
 12 13  1  0
 13 14  2  0
 13 15  1  0
 15 16  1  0
 16 17  1  0
 17 18  2  0
 18 19  1  0
 19 20  2  0
 20 21  1  0
 20 22  1  0
 22 23  2  0
 22 24  1  0
 24 25  1  0
 17 26  1  0
 26 27  1  0
 27 28  1  0
 26 29  1  0
 29 30  1  0
 30 31  1  0
 31 32  1  0
 32 33  2  0
 32 34  1  0
 34 35  2  0
 35 36  1  0
 36 37  2  0
 37 38  1  0
 38 39  2  0
 10  1  1  0
 21 16  2  0
 31 28  1  0
 39 34  1  0
  1 40  1  0
  3 41  1  0
  3 42  1  0
  3 43  1  0
  4 44  1  0
  5 45  1  0
  7 46  1  0
  8 47  1  0
  8 48  1  0
  8 49  1  0
  9 50  1  0
  9 51  1  0
  9 52  1  0
 12 53  1  0
 12 54  1  0
 15 55  1  0
 18 56  1  0
 19 57  1  0
 21 58  1  0
 25 59  1  0
 25 60  1  0
 25 61  1  0
 27 62  1  0
 27 63  1  0
 28 64  1  0
 28 65  1  0
 29 66  1  0
 29 67  1  0
 30 68  1  0
 30 69  1  0
 35 70  1  0
 36 71  1  0
 37 72  1  0
 38 73  1  0
 39 74  1  0
M  END
>  <mol_id>  (49) 
OSSK_595228

>  <drugclip_rank>  (49) 
49

>  <conformer>  (49) 
14

>  <align_rmsd>  (49) 
0.688

$$$$
Z26762628
     RDKit          3D

 73 77  0  0  0  0  0  0  0  0999 V2000
   -1.8435    2.8494   -5.4989 C   0  0  0  0  0  0  0  0  0  0  0  0
   -2.0141    1.9598   -6.7334 C   0  0  0  0  0  0  0  0  0  0  0  0
   -1.2240    0.7612   -6.6844 O   0  0  0  0  0  0  0  0  0  0  0  0
   -0.9683    0.3044   -5.3495 C   0  0  0  0  0  0  0  0  0  0  0  0
   -2.1035    0.6411   -4.3763 C   0  0  0  0  0  0  0  0  0  0  0  0
   -2.2646    2.1285   -4.2525 N   0  0  0  0  0  0  0  0  0  0  0  0
   -3.7589    2.6543   -3.6162 S   0  0  0  0  0  0  0  0  0  0  0  0
   -3.6825    4.0871   -3.4120 O   0  0  0  0  0  0  0  0  0  0  0  0
   -4.8004    2.0687   -4.4345 O   0  0  0  0  0  0  0  0  0  0  0  0
   -3.7835    1.8867   -2.0179 C   0  0  0  0  0  0  0  0  0  0  0  0
   -2.8170    2.2864   -1.0843 C   0  0  0  0  0  0  0  0  0  0  0  0
   -4.7286    0.8974   -1.7264 C   0  0  0  0  0  0  0  0  0  0  0  0
   -4.7148    0.2485   -0.4876 C   0  0  0  0  0  0  0  0  0  0  0  0
   -3.7240    0.6352    0.4278 C   0  0  0  0  0  0  0  0  0  0  0  0
   -2.7960    1.6373    0.1533 C   0  0  0  0  0  0  0  0  0  0  0  0
   -3.3953    0.2142    1.6991 N   0  0  0  0  0  0  0  0  0  0  0  0
   -4.0523   -0.8547    2.4294 C   0  0  0  0  0  0  0  0  0  0  0  0
   -5.0033   -0.3648    3.5224 C   0  0  0  0  0  0  0  0  0  0  0  0
   -6.2257    0.3603    2.9775 C   0  0  0  0  0  0  0  0  0  0  0  0
   -2.3140    0.9575    2.1316 C   0  0  0  0  0  0  0  0  0  0  0  0
   -1.9517    1.8330    1.2116 N   0  0  0  0  0  0  0  0  0  0  0  0
   -1.6624    0.8032    3.4729 C   0  0  0  0  0  0  0  0  0  0  0  0
   -0.2361    1.3471    3.4750 C   0  0  0  0  0  0  0  0  0  0  0  0
    0.6999    0.4662    2.6567 C   0  0  0  0  0  0  0  0  0  0  0  0
    0.5397   -0.7490    2.6024 O   0  0  0  0  0  0  0  0  0  0  0  0
    1.7345    1.1962    2.0962 N   0  0  0  0  0  0  0  0  0  0  0  0
    2.8410    0.7318    1.3469 C   0  0  0  0  0  0  0  0  0  0  0  0
    3.0273   -0.6263    1.0559 C   0  0  0  0  0  0  0  0  0  0  0  0
    4.1347   -1.0676    0.3247 C   0  0  0  0  0  0  0  0  0  0  0  0
    5.0759   -0.1562   -0.1323 C   0  0  0  0  0  0  0  0  0  0  0  0
    4.9082    1.1989    0.1395 C   0  0  0  0  0  0  0  0  0  0  0  0
    3.7998    1.6637    0.8808 C   0  0  0  0  0  0  0  0  0  0  0  0
    3.6883    3.1661    1.1029 C   0  0  0  0  0  0  0  0  0  0  0  0
    3.6747    3.6435    2.5435 C   0  0  0  0  0  0  0  0  0  0  0  0
    2.9197    4.7790    2.8830 C   0  0  0  0  0  0  0  0  0  0  0  0
    2.8814    5.2409    4.2001 C   0  0  0  0  0  0  0  0  0  0  0  0
    3.6087    4.5861    5.1912 C   0  0  0  0  0  0  0  0  0  0  0  0
    4.3859    3.4761    4.8633 C   0  0  0  0  0  0  0  0  0  0  0  0
    4.4283    3.0119    3.5446 C   0  0  0  0  0  0  0  0  0  0  0  0
   -2.4024    3.7821   -5.6316 H   0  0  0  0  0  0  0  0  0  0  0  0
   -0.7908    3.1245   -5.3707 H   0  0  0  0  0  0  0  0  0  0  0  0
   -3.0615    1.6641   -6.8567 H   0  0  0  0  0  0  0  0  0  0  0  0
   -1.7209    2.5094   -7.6325 H   0  0  0  0  0  0  0  0  0  0  0  0
   -0.8217   -0.7789   -5.3974 H   0  0  0  0  0  0  0  0  0  0  0  0
   -0.0274    0.7518   -5.0142 H   0  0  0  0  0  0  0  0  0  0  0  0
   -1.8750    0.2232   -3.3916 H   0  0  0  0  0  0  0  0  0  0  0  0
   -3.0298    0.1903   -4.7461 H   0  0  0  0  0  0  0  0  0  0  0  0
   -2.0874    3.0584   -1.3093 H   0  0  0  0  0  0  0  0  0  0  0  0
   -5.4780    0.6159   -2.4657 H   0  0  0  0  0  0  0  0  0  0  0  0
   -5.4411   -0.5237   -0.2562 H   0  0  0  0  0  0  0  0  0  0  0  0
   -3.2656   -1.4767    2.8666 H   0  0  0  0  0  0  0  0  0  0  0  0
   -4.5815   -1.4933    1.7127 H   0  0  0  0  0  0  0  0  0  0  0  0
   -4.4806    0.2970    4.2211 H   0  0  0  0  0  0  0  0  0  0  0  0
   -5.3371   -1.2327    4.1018 H   0  0  0  0  0  0  0  0  0  0  0  0
   -6.8971    0.6327    3.7993 H   0  0  0  0  0  0  0  0  0  0  0  0
   -5.9439    1.2832    2.4582 H   0  0  0  0  0  0  0  0  0  0  0  0
   -6.7830   -0.2783    2.2815 H   0  0  0  0  0  0  0  0  0  0  0  0
   -2.2543    1.3647    4.2048 H   0  0  0  0  0  0  0  0  0  0  0  0
   -1.6586   -0.2448    3.7886 H   0  0  0  0  0  0  0  0  0  0  0  0
    0.1513    1.3553    4.5014 H   0  0  0  0  0  0  0  0  0  0  0  0
   -0.2176    2.3835    3.1142 H   0  0  0  0  0  0  0  0  0  0  0  0
    1.6910    2.1912    2.2560 H   0  0  0  0  0  0  0  0  0  0  0  0
    2.3218   -1.3815    1.3851 H   0  0  0  0  0  0  0  0  0  0  0  0
    4.2533   -2.1289    0.1165 H   0  0  0  0  0  0  0  0  0  0  0  0
    5.9368   -0.4960   -0.7032 H   0  0  0  0  0  0  0  0  0  0  0  0
    5.6521    1.9018   -0.2323 H   0  0  0  0  0  0  0  0  0  0  0  0
    4.5123    3.6884    0.5996 H   0  0  0  0  0  0  0  0  0  0  0  0
    2.7711    3.4968    0.5946 H   0  0  0  0  0  0  0  0  0  0  0  0
    2.3527    5.3152    2.1218 H   0  0  0  0  0  0  0  0  0  0  0  0
    2.2898    6.1177    4.4503 H   0  0  0  0  0  0  0  0  0  0  0  0
    3.5831    4.9442    6.2189 H   0  0  0  0  0  0  0  0  0  0  0  0
    4.9626    2.9744    5.6360 H   0  0  0  0  0  0  0  0  0  0  0  0
    5.0432    2.1432    3.3133 H   0  0  0  0  0  0  0  0  0  0  0  0
  1  2  1  0
  2  3  1  0
  3  4  1  0
  4  5  1  0
  5  6  1  0
  6  7  1  0
  7  8  2  0
  7  9  2  0
  7 10  1  0
 10 11  2  0
 10 12  1  0
 12 13  2  0
 13 14  1  0
 14 15  2  0
 14 16  1  0
 16 17  1  0
 17 18  1  0
 18 19  1  0
 16 20  1  0
 20 21  2  0
 20 22  1  0
 22 23  1  0
 23 24  1  0
 24 25  2  0
 24 26  1  0
 26 27  1  0
 27 28  2  0
 28 29  1  0
 29 30  2  0
 30 31  1  0
 31 32  2  0
 32 33  1  0
 33 34  1  0
 34 35  2  0
 35 36  1  0
 36 37  2  0
 37 38  1  0
 38 39  2  0
  6  1  1  0
 15 11  1  0
 21 15  1  0
 32 27  1  0
 39 34  1  0
  1 40  1  0
  1 41  1  0
  2 42  1  0
  2 43  1  0
  4 44  1  0
  4 45  1  0
  5 46  1  0
  5 47  1  0
 11 48  1  0
 12 49  1  0
 13 50  1  0
 17 51  1  0
 17 52  1  0
 18 53  1  0
 18 54  1  0
 19 55  1  0
 19 56  1  0
 19 57  1  0
 22 58  1  0
 22 59  1  0
 23 60  1  0
 23 61  1  0
 26 62  1  0
 28 63  1  0
 29 64  1  0
 30 65  1  0
 31 66  1  0
 33 67  1  0
 33 68  1  0
 35 69  1  0
 36 70  1  0
 37 71  1  0
 38 72  1  0
 39 73  1  0
M  END
>  <mol_id>  (50) 
Z26762628

>  <drugclip_rank>  (50) 
50

>  <conformer>  (50) 
23

>  <align_rmsd>  (50) 
0.907

$$$$
