Z9466035860
     RDKit          3D

 35 37  0  0  0  0  0  0  0  0999 V2000
    6.1067   -7.3604    1.8631 C   0  0  0  0  0  0  0  0  0  0  0  0
    6.0372   -6.4972    3.1162 C   0  0  0  0  0  0  0  0  0  0  0  0
    5.1892   -5.2307    2.9371 C   0  0  0  0  0  0  0  0  0  0  0  0
    5.7815   -4.2012    1.9571 C   0  0  2  0  0  0  0  0  0  0  0  0
    7.0711   -3.7030    2.4656 N   0  0  0  0  0  0  0  0  0  0  0  0
    8.1049   -3.3817    1.6160 C   0  0  0  0  0  0  0  0  0  0  0  0
    7.9674   -3.2947    0.4000 O   0  0  0  0  0  0  0  0  0  0  0  0
    9.4202   -3.1180    2.2989 C   0  0  0  0  0  0  0  0  0  0  0  0
    4.7296   -3.0888    1.6907 C   0  0  0  0  0  0  0  0  0  0  0  0
    3.5871   -3.3807    1.3548 O   0  0  0  0  0  0  0  0  0  0  0  0
    5.2306   -1.8065    1.8205 N   0  0  0  0  0  0  0  0  0  0  0  0
    4.5442   -0.5818    1.6899 C   0  0  0  0  0  0  0  0  0  0  0  0
    5.3203    0.5820    1.7361 C   0  0  0  0  0  0  0  0  0  0  0  0
    4.7245    1.8376    1.6224 C   0  0  0  0  0  0  0  0  0  0  0  0
    3.3438    1.9386    1.4689 C   0  0  0  0  0  0  0  0  0  0  0  0
    2.5481    0.7882    1.4144 C   0  0  0  0  0  0  0  0  0  0  0  0
    3.1569   -0.4706    1.5199 C   0  0  0  0  0  0  0  0  0  0  0  0
    1.1672    0.9858    1.2268 N   0  0  0  0  0  0  0  0  0  0  0  0
    0.1542    0.0396    1.1741 C   0  0  0  0  0  0  0  0  0  0  0  0
    0.2755   -1.1655    1.3553 O   0  0  0  0  0  0  0  0  0  0  0  0
   -1.1487    0.6748    0.8698 C   0  0  0  0  0  0  0  0  0  0  0  0
   -1.2805    2.0419    0.7251 N   0  0  0  0  0  0  0  0  0  0  0  0
   -2.5678    2.2143    0.4789 C   0  0  0  0  0  0  0  0  0  0  0  0
   -3.2592    3.5463    0.5416 C   0  0  0  0  0  0  0  0  0  0  0  0
   -2.7180    4.4871   -0.5341 C   0  0  0  0  0  0  0  0  0  0  0  0
   -3.0604    4.1689    1.9280 C   0  0  0  0  0  0  0  0  0  0  0  0
   -3.1741    0.9680    0.3316 N   0  0  0  0  0  0  0  0  0  0  0  0
   -2.3017    0.0082    0.7355 N   0  0  0  0  0  0  0  0  0  0  0  0
   -4.4584    0.5761   -0.1199 C   0  0  0  0  0  0  0  0  0  0  0  0
   -4.9692   -0.6730    0.2780 C   0  0  0  0  0  0  0  0  0  0  0  0
   -6.2308   -1.0948   -0.1536 C   0  0  0  0  0  0  0  0  0  0  0  0
   -6.9847   -0.2894   -1.0052 C   0  0  0  0  0  0  0  0  0  0  0  0
   -6.4662    0.9299   -1.4394 C   0  0  0  0  0  0  0  0  0  0  0  0
   -5.2034    1.3477   -1.0125 C   0  0  0  0  0  0  0  0  0  0  0  0
   -4.7195    2.4780   -1.5417 F   0  0  0  0  0  0  0  0  0  0  0  0
  1  2  1  0
  2  3  1  0
  4  3  1  1
  4  5  1  0
  5  6  1  0
  6  7  2  0
  6  8  1  0
  4  9  1  0
  9 10  2  0
  9 11  1  0
 11 12  1  0
 12 13  2  0
 13 14  1  0
 14 15  2  0
 15 16  1  0
 16 17  2  0
 16 18  1  0
 18 19  1  0
 19 20  2  0
 19 21  1  0
 21 22  1  0
 22 23  2  0
 23 24  1  0
 24 25  1  0
 24 26  1  0
 23 27  1  0
 27 28  1  0
 27 29  1  0
 29 30  2  0
 30 31  1  0
 31 32  2  0
 32 33  1  0
 33 34  2  0
 34 35  1  0
 17 12  1  0
 28 21  2  0
 34 29  1  0
M  END
>  <mol_id>  (1) 
Z9466035860

>  <drugclip_rank>  (1) 
42

>  <conformer>  (1) 
31

>  <align_rmsd>  (1) 
0.763

$$$$
