7D9O_H0L_B601
     RDKit          3D

 30 33  0  0  0  0  0  0  0  0999 V2000
   89.7830   81.7040   -6.0610 N   0  0  0  0  0  0  0  0  0  0  0  0
   88.5450   87.8590   -2.8150 C   0  0  0  0  0  0  0  0  0  0  0  0
   87.2780   88.2280   -3.2400 C   0  0  0  0  0  0  0  0  0  0  0  0
   86.6070   89.3200   -2.6970 C   0  0  0  0  0  0  0  0  0  0  0  0
   87.2530   90.0590   -1.7350 C   0  0  0  0  0  0  0  0  0  0  0  0
   85.4030   91.5140   -1.5030 C   0  0  0  0  0  0  0  0  0  0  0  0
   87.7530   86.0750   -4.1960 C   0  0  0  0  0  0  0  0  0  0  0  0
   87.7790   82.8440   -5.1390 C   0  0  0  0  0  0  0  0  0  0  0  0
   90.5040   80.4460   -6.2960 C   0  0  0  0  0  0  0  0  0  0  0  0
   92.2790   80.9820   -7.9980 C   0  0  0  0  0  0  0  0  0  0  0  0
   90.7960   79.8350  -10.0320 C   0  0  0  0  0  0  0  0  0  0  0  0
   90.3220   79.8430   -8.7310 C   0  0  0  0  0  0  0  0  0  0  0  0
   90.5180   82.5810   -5.1540 C   0  0  0  0  0  0  0  0  0  0  0  0
   89.0240   86.6450   -3.5680 C   0  0  0  0  0  0  0  0  0  0  0  0
   90.4360   90.2790    0.0230 C   0  0  0  0  0  0  0  0  0  0  0  0
   87.8660   85.3880   -5.5500 C   0  0  0  0  0  0  0  0  0  0  0  0
   88.5340   84.0230   -5.7340 C   0  0  1  0  0  0  0  0  0  0  0  0
   88.4020   81.5150   -5.5960 C   0  0  0  0  0  0  0  0  0  0  0  0
   91.0600   80.4010   -7.7030 C   0  0  0  0  0  0  0  0  0  0  0  0
   92.7720   80.9830   -9.2940 C   0  0  0  0  0  0  0  0  0  0  0  0
   92.0090   80.4110  -10.2750 C   0  0  0  0  0  0  0  0  0  0  0  0
   88.5470   89.6960   -1.2950 C   0  0  0  0  0  0  0  0  0  0  0  0
   89.9900   83.9950   -5.2770 C   0  0  0  0  0  0  0  0  0  0  0  0
   89.1990   88.6070   -1.8480 C   0  0  0  0  0  0  0  0  0  0  0  0
   86.8090   87.2630   -4.2390 C   0  0  0  0  0  0  0  0  0  0  0  0
   88.4870   83.8910   -7.1510 F   0  0  0  0  0  0  0  0  0  0  0  0
   92.4800   80.4050  -11.5540 F   0  0  0  0  0  0  0  0  0  0  0  0
   89.0740   90.5150   -0.3330 O   0  0  0  0  0  0  0  0  0  0  0  0
   86.7310   91.1630   -1.1290 O   0  0  0  0  0  0  0  0  0  0  0  0
   85.7930   87.3270   -4.9150 O   0  0  0  0  0  0  0  0  0  0  0  0
  3  2  1  0
  4  3  2  0
  5  4  1  0
  9  1  1  0
 12 11  2  0
 13  1  1  0
 14  7  1  0
 14  2  1  0
  7 16  1  0
 17 16  1  0
 17  8  1  0
 18  1  1  0
 18  8  1  0
 19 12  1  0
 19 10  2  0
 19  9  1  0
 20 10  1  0
 21 11  1  0
 21 20  2  0
 22  5  2  0
 23 17  1  0
 23 13  1  0
 24 22  1  0
 24  2  2  0
 25  7  1  0
 25  3  1  0
 17 26  1  6
 27 21  1  0
 28 22  1  0
 28 15  1  0
 29  6  1  0
 29  5  1  0
 30 25  2  0
M  CHG  1   1   1
M  END
>  <_TriposChargeType>  (1) 
GASTEIGER

$$$$
