5ZKB_82F_A1201
     RDKit          3D

 35 38  0  0  0  0  0  0  0  0999 V2000
  139.4740  149.6200  101.1230 C   0  0  0  0  0  0  0  0  0  0  0  0
  138.4430  147.9570  102.3000 C   0  0  0  0  0  0  0  0  0  0  0  0
  137.7570  147.1010  104.4800 C   0  0  0  0  0  0  0  0  0  0  0  0
  138.4620  149.2390  101.9170 N   0  0  0  0  0  0  0  0  0  0  0  0
  137.3820  147.8250  105.6090 C   0  0  0  0  0  0  0  0  0  0  0  0
  137.7440  147.3690  106.8640 C   0  0  0  0  0  0  0  0  0  0  0  0
  137.3960  147.5710  103.1760 N   0  0  0  0  0  0  0  0  0  0  0  0
  138.4710  146.2040  107.0020 C   0  0  0  0  0  0  0  0  0  0  0  0
  138.8510  145.4780  105.8870 C   0  0  0  0  0  0  0  0  0  0  0  0
  138.5000  145.9170  104.6120 C   0  0  0  0  0  0  0  0  0  0  0  0
  136.0360  147.6060  102.7520 C   0  0  0  0  0  0  0  0  0  0  0  0
  135.1730  147.0380  103.6000 N   0  0  0  0  0  0  0  0  0  0  0  0
  133.7560  147.0380  103.2690 C   0  0  0  0  0  0  0  0  0  0  0  0
  133.3470  145.7570  102.5730 C   0  0  0  0  0  0  0  0  0  0  0  0
  131.3970  144.3150  102.6760 C   0  0  0  0  0  0  0  0  0  0  0  0
  131.9980  145.5030  102.0540 N   0  0  0  0  0  0  0  0  0  0  0  0
  139.3540  145.6660  102.3170 N   0  0  0  0  0  0  0  0  0  0  0  0
  138.9630  145.0820  103.4650 C   0  0  0  0  0  0  0  0  0  0  0  0
  138.9640  143.8590  103.5720 O   0  0  0  0  0  0  0  0  0  0  0  0
  139.4080  147.0200  101.9080 C   0  0  0  0  0  0  0  0  0  0  0  0
  132.0420  143.0410  102.1870 C   0  0  0  0  0  0  0  0  0  0  0  0
  131.9530  142.9370  100.6820 C   0  0  0  0  0  0  0  0  0  0  0  0
  132.5460  144.1720  100.0160 C   0  0  0  0  0  0  0  0  0  0  0  0
  131.9220  145.4410  100.5790 C   0  0  0  0  0  0  0  0  0  0  0  0
  140.4440  147.4480  101.0850 C   0  0  0  0  0  0  0  0  0  0  0  0
  130.5010  145.7320  100.0880 C   0  0  0  0  0  0  0  0  0  0  0  0
  131.2340  147.9130   99.2610 C   0  0  0  0  0  0  0  0  0  0  0  0
  131.9990  149.0790   99.8530 C   0  0  0  0  0  0  0  0  0  0  0  0
  132.8150  149.7970   98.8110 C   0  0  0  0  0  0  0  0  0  0  0  0
  129.0150  147.6640  100.2250 C   0  0  0  0  0  0  0  0  0  0  0  0
  128.7220  148.6990  101.2840 C   0  0  0  0  0  0  0  0  0  0  0  0
  127.3070  149.1510  101.2310 C   0  0  0  0  0  0  0  0  0  0  0  0
  140.4720  148.7750  100.6900 C   0  0  0  0  0  0  0  0  0  0  0  0
  130.4030  147.1890  100.2320 N   0  0  0  0  0  0  0  0  0  0  0  0
  135.7370  148.1190  101.6840 O   0  0  0  0  0  0  0  0  0  0  0  0
  4  2  1  0
  4  1  2  0
  5  3  2  0
  6  5  1  0
  7  3  1  0
  7  2  1  0
  8  6  2  0
  9  8  1  0
 10  9  2  0
 10  3  1  0
 11  7  1  0
 12 11  1  0
 13 12  1  0
 14 13  1  0
 16 15  1  0
 16 14  1  0
 18 17  1  0
 18 10  1  0
 19 18  2  0
 20 17  1  0
 20  2  2  0
 21 15  1  0
 22 21  1  0
 23 22  1  0
 24 23  1  0
 24 16  1  0
 25 20  1  0
 24 26  1  0
 28 27  1  0
 29 28  1  0
 31 30  1  0
 32 31  1  0
 33 25  2  0
 33  1  1  0
 34 26  1  0
 34 30  1  0
 34 27  1  0
 35 11  2  0
M  CHG  2  16   1  34   1
M  END
>  <_TriposChargeType>  (1) 
GASTEIGER

$$$$
