5ZK3_QNB_A501
     RDKit          3D

 25 28  0  0  0  0  0  0  0  0999 V2000
  138.3200  145.7570  102.8230 C   0  0  2  0  0  0  0  0  0  0  0  0
  138.0100  146.0990  104.2860 C   0  0  0  0  0  0  0  0  0  0  0  0
  137.1010  147.1010  104.6080 C   0  0  0  0  0  0  0  0  0  0  0  0
  136.8270  147.4070  105.9310 C   0  0  0  0  0  0  0  0  0  0  0  0
  137.4540  146.7200  106.9460 C   0  0  0  0  0  0  0  0  0  0  0  0
  138.3580  145.7270  106.6430 C   0  0  0  0  0  0  0  0  0  0  0  0
  138.6350  145.4160  105.3210 C   0  0  0  0  0  0  0  0  0  0  0  0
  138.4160  147.0260  101.9680 C   0  0  0  0  0  0  0  0  0  0  0  0
  139.3570  148.0070  102.2600 C   0  0  0  0  0  0  0  0  0  0  0  0
  139.4440  149.1540  101.4910 C   0  0  0  0  0  0  0  0  0  0  0  0
  138.5970  149.3390  100.4210 C   0  0  0  0  0  0  0  0  0  0  0  0
  137.6600  148.3760  100.1200 C   0  0  0  0  0  0  0  0  0  0  0  0
  137.5690  147.2270  100.8860 C   0  0  0  0  0  0  0  0  0  0  0  0
  137.2560  144.7890  102.2660 C   0  0  0  0  0  0  0  0  0  0  0  0
  139.5890  145.0970  102.7770 O   0  0  0  0  0  0  0  0  0  0  0  0
  137.5300  143.8100  101.6300 O   0  0  0  0  0  0  0  0  0  0  0  0
  136.0070  145.1490  102.5910 O   0  0  0  0  0  0  0  0  0  0  0  0
  134.9290  144.2300  102.2480 C   0  0  0  0  0  0  0  0  0  0  0  0
  133.8400  144.3480  103.2930 C   0  0  0  0  0  0  0  0  0  0  0  0
  132.6420  144.9920  102.7520 N   0  0  0  0  0  0  0  0  0  0  0  0
  132.9870  146.3060  102.2010 C   0  0  0  0  0  0  0  0  0  0  0  0
  133.9850  146.1730  101.0570 C   0  0  0  0  0  0  0  0  0  0  0  0
  134.3680  144.7030  100.9160 C   0  0  0  0  0  0  0  0  0  0  0  0
  133.1150  143.8860  100.6050 C   0  0  0  0  0  0  0  0  0  0  0  0
  132.0750  144.1630  101.6830 C   0  0  0  0  0  0  0  0  0  0  0  0
  2  1  1  0
  3  2  2  0
  4  3  1  0
  5  4  2  0
  6  5  1  0
  7  6  2  0
  7  2  1  0
  8  1  1  0
  9  8  2  0
 10  9  1  0
 11 10  2  0
 12 11  1  0
 13  8  1  0
 13 12  2  0
 14  1  1  0
  1 15  1  1
 16 14  2  0
 17 14  1  0
 18 17  1  0
 19 18  1  0
 20 19  1  0
 21 20  1  0
 22 21  1  0
 23 22  1  0
 23 18  1  0
 24 23  1  0
 25 24  1  0
 25 20  1  0
M  END
>  <_TriposChargeType>  (1) 
GASTEIGER

$$$$
