@<TRIPOS>MOLECULE
5HF5_DEP_A604
 8 7 0 0 0
SMALL
GASTEIGER

@<TRIPOS>ATOM
      1 C          86.4550   85.4670  -11.7360 C.3     1  UNL1        0.1520
      2 C          85.5690   84.3850  -12.2930 C.3     1  UNL1        0.0352
      3 C          89.3650   83.5230   -9.6890 C.3     1  UNL1        0.1520
      4 C          89.3690   84.9460   -9.1610 C.3     1  UNL1        0.0352
      5 O          87.7690   85.3980  -12.3170 O.3     1  UNL1       -0.2864
      6 O          88.4470   83.5310  -10.7540 O.3     1  UNL1       -0.2864
      7 O          90.2270   84.5240  -12.3140 O.2     1  UNL1       -0.2453
      8 P          88.7990   84.1330  -12.1660 P.3     1  UNL1        0.4438
@<TRIPOS>BOND
     1     2     1    1
     2     4     3    1
     3     5     1    1
     4     6     3    1
     5     8     7    2
     6     8     5    1
     7     8     6    1
