@<TRIPOS>MOLECULE
5HF9_DEP_A604
 8 7 0 0 0
SMALL
GASTEIGER

@<TRIPOS>ATOM
      1 C          86.7610   85.4670  -11.9140 C.3     1  UNL1        0.1520
      2 C          85.9810   84.5030  -12.7940 C.3     1  UNL1        0.0352
      3 C          89.4900   82.9210   -9.8630 C.3     1  UNL1        0.1520
      4 C          90.2270   83.9390   -9.0130 C.3     1  UNL1        0.0352
      5 O          88.0950   85.4370  -12.3050 O.3     1  UNL1       -0.2864
      6 O          88.6000   83.6930  -10.6690 O.3     1  UNL1       -0.2864
      7 O          90.4510   84.4260  -12.2960 O.2     1  UNL1       -0.2453
      8 P          88.9970   84.1510  -12.1330 P.3     1  UNL1        0.4438
@<TRIPOS>BOND
     1     2     1    1
     2     4     3    1
     3     5     1    1
     4     6     3    1
     5     8     7    2
     6     8     5    1
     7     8     6    1
