@<TRIPOS>MOLECULE
6NTG_HI6_B601
 21 22 0 0 0
SMALL
GASTEIGER

@<TRIPOS>ATOM
      1 O          93.7820   93.7520   -0.3390 O.2     1  UNL1       -0.2667
      2 C          93.8730   93.3250   -1.4420 C.2     1  UNL1        0.2846
      3 N          94.8170   93.9170   -2.3710 N.am    1  UNL1       -0.0837
      4 C          93.1270   92.3110   -1.8390 C.ar    1  UNL1        0.0689
      5 C          92.1270   91.8110   -1.0350 C.ar    1  UNL1        0.0805
      6 C          91.3750   90.7430   -1.5020 C.ar    1  UNL1        0.2924
      7 N          91.6090   90.2110   -2.7000 N.ar    1  UNL1       -0.1308
      8 C          92.5700   90.6790   -3.4890 C.ar    1  UNL1        0.2924
      9 C          93.3530   91.7420   -3.0730 C.ar    1  UNL1        0.0805
     10 C          90.8050   89.0870   -3.1470 C.3     1  UNL1        0.4916
     11 O          89.8230   88.8920   -2.1710 O.3     1  UNL1       -0.2192
     12 C          89.4910   87.5630   -1.8660 C.3     1  UNL1        0.4914
     13 N          88.8180   86.8650   -2.9620 N.ar    1  UNL1       -0.1344
     14 C          87.8440   87.4270   -3.6800 C.ar    1  UNL1        0.2513
     15 C          87.4510   88.6640   -3.4450 C.2     1  UNL1        0.2139
     16 N          86.2600   89.2260   -4.0520 N.2     1  UNL1       -0.0214
     17 O          85.8370   90.5040   -3.6510 O.2     1  UNL1       -0.1429
     18 C          87.2350   86.7110   -4.7070 C.ar    1  UNL1        0.0713
     19 C          87.6330   85.4070   -4.9740 C.ar    1  UNL1        0.0125
     20 C          88.6380   84.8520   -4.2040 C.ar    1  UNL1        0.0759
     21 C          89.1990   85.6220   -3.2040 C.ar    1  UNL1        0.2921
@<TRIPOS>UNITY_ATOM_ATTR
7 1
charge 1
13 1
charge 1
@<TRIPOS>BOND
     1     2     1    2
     2     3     2   am
     3     4     2    1
     4     5     4   ar
     5     6     5   ar
     6     7     6   ar
     7     8     7   ar
     8     9     8   ar
     9     9     4   ar
    10    10     7    1
    11    11    10    1
    12    12    11    1
    13    13    12    1
    14    14    13   ar
    15    15    14    1
    16    16    15    2
    17    17    16    1
    18    18    14   ar
    19    19    18   ar
    20    20    19   ar
    21    21    20   ar
    22    21    13   ar
