@<TRIPOS>MOLECULE
6NTM_L0S_B605
 12 11 0 0 0
SMALL
GASTEIGER

@<TRIPOS>ATOM
      1  C13       87.9780   85.3140  -11.2810 C.3   605  L0S605      0.1850
      2  C01       92.9240   80.2340  -10.5830 C.3   605  L0S605      0.0551
      3  C02       91.5220   79.7630  -10.2020 C.3   605  L0S605      0.2021
      4  C04       90.9540   80.4580   -7.8530 C.3   605  L0S605      0.2021
      5  C05       90.0830   79.2500   -7.5160 C.3   605  L0S605      0.0551
      6  C06       90.2620   81.8890   -9.8040 C.2   605  L0S605      0.3021
      7  C07       89.6250   82.8780   -8.8290 C.3   605  L0S605      0.1297
      8  N03       90.9120   80.7030   -9.2820 N.pl3 605  L0S605     -0.1942
      9  N08       90.2530   82.0470  -11.0480 N.2   605  L0S605     -0.0061
     10  O11       90.5380   84.4280  -12.0760 O.3   605  L0S605     -0.1269
     11  O12       88.1700   83.9310  -11.2490 O.3   605  L0S605     -0.2786
     12  P09       89.5650   83.3510  -11.9040 P.3   605  L0S605      0.4747
@<TRIPOS>BOND
     1    10    12    1
     2    12    11    1
     3    12     9    1
     4     1    11    1
     5     9     6    2
     6     2     3    1
     7     3     8    1
     8     6     8    1
     9     6     7    1
    10     8     4    1
    11     4     5    1
