@<TRIPOS>MOLECULE
6WVO_HI6_A604
 21 22 0 0 0
SMALL
GASTEIGER

@<TRIPOS>ATOM
      1 O          93.8530   93.9760   -0.9090 O.2     1  UNL1       -0.2667
      2 C          93.9730   93.2200   -1.8180 C.2     1  UNL1        0.2846
      3 N          95.0960   93.3690   -2.7190 N.am    1  UNL1       -0.0837
      4 C          92.9650   92.0950   -2.0970 C.ar    1  UNL1        0.0689
      5 C          93.0710   91.4350   -3.2760 C.ar    1  UNL1        0.0805
      6 C          92.1920   90.4090   -3.5890 C.ar    1  UNL1        0.2924
      7 N          91.2200   90.0590   -2.7200 N.ar    1  UNL1       -0.1308
      8 C          91.1000   90.7190   -1.5380 C.ar    1  UNL1        0.2924
      9 C          91.9820   91.7470   -1.2200 C.ar    1  UNL1        0.0805
     10 C          90.3070   88.9850   -3.1100 C.3     1  UNL1        0.4916
     11 O          90.2890   87.9020   -2.2240 O.3     1  UNL1       -0.2192
     12 C          89.0510   87.2570   -2.1890 C.3     1  UNL1        0.4914
     13 N          89.0610   86.0580   -3.0060 N.ar    1  UNL1       -0.1344
     14 C          88.0450   85.8440   -3.8680 C.ar    1  UNL1        0.2513
     15 C          86.9180   86.8670   -3.9890 C.2     1  UNL1        0.2139
     16 N          86.8310   87.5660   -5.0290 N.2     1  UNL1       -0.0214
     17 O          85.7900   88.4890   -5.1040 O.2     1  UNL1       -0.1429
     18 C          88.0300   84.7140   -4.6650 C.ar    1  UNL1        0.0713
     19 C          89.0440   83.8190   -4.5740 C.ar    1  UNL1        0.0125
     20 C          90.0630   84.0160   -3.7060 C.ar    1  UNL1        0.0759
     21 C          90.0690   85.1570   -2.9130 C.ar    1  UNL1        0.2921
@<TRIPOS>UNITY_ATOM_ATTR
7 1
charge 1
13 1
charge 1
@<TRIPOS>BOND
     1     2     1    2
     2     3     2   am
     3     4     2    1
     4     5     4   ar
     5     6     5   ar
     6     7     6   ar
     7     8     7   ar
     8     9     8   ar
     9     9     4   ar
    10    10     7    1
    11    11    10    1
    12    12    11    1
    13    13    12    1
    14    14    13   ar
    15    15    14    1
    16    16    15    2
    17    17    16    1
    18    18    14   ar
    19    19    18   ar
    20    20    19   ar
    21    21    20   ar
    22    21    13   ar
