@<TRIPOS>MOLECULE
6WVP_WW2_B602
 10 10 0 0 0
SMALL
GASTEIGER

@<TRIPOS>ATOM
      1  C1        90.1960   81.3860   -8.9400 C.3   602  WW2602      0.0300
      2  O1        90.3680   84.4800  -11.7690 O.3   602  WW2602     -0.1774
      3  P1        89.0500   83.8260  -11.6020 P.3   602  WW2602      0.2205
      4  C2        90.8380   80.0160   -8.9300 C.3   602  WW2602      0.0025
      5  O2        89.0320   83.0160  -10.2440 O.3   602  WW2602     -0.3199
      6  C3        91.7440   79.8030  -10.1270 C.3   602  WW2602      0.0002
      7  C4        91.0350   80.0890  -11.4350 C.3   602  WW2602      0.0025
      8  C5        90.3900   81.4580  -11.4460 C.3   602  WW2602      0.0300
      9  C6        89.4850   81.6710  -10.2480 C.3   602  WW2602      0.1213
     10  C7        87.7490   85.0920  -11.5660 C.3   602  WW2602      0.0904
@<TRIPOS>BOND
     1     2     3    1
     2     3    10    1
     3     3     5    1
     4     8     7    1
     5     8     9    1
     6     7     6    1
     7     9     5    1
     8     9     1    1
     9     6     4    1
    10     1     4    1
