@<TRIPOS>MOLECULE
6WVQ_UCY_A606
 11 11 0 0 0
SMALL
GASTEIGER

@<TRIPOS>ATOM
      1 C          87.9670   83.6600  -12.3130 C.3     1  UNL1        0.1066
      2 P          89.7280   83.2540  -11.8680 P.3     1  UNL1        0.2959
      3 O          90.4680   84.4900  -11.6340 O.2     1  UNL1       -0.2800
      4 C          90.1260   79.7210  -10.4970 C.3     1  UNL1        0.0024
      5 C          91.3550   80.4970  -10.0270 C.3     1  UNL1        0.0255
      6 C          92.5160   80.3030  -11.0000 C.3     1  UNL1        0.0024
      7 C          91.7790   80.0200   -8.5600 C.3     1  UNL1        0.0024
      8 C          91.9380   81.1710   -7.8310 C.3     1  UNL1        0.0026
      9 C          90.9400   82.2970   -8.5410 C.3     1  UNL1        0.0300
     10 C          91.0060   82.0550   -9.8900 C.3     1  UNL1        0.1221
     11 O          89.7490   82.3340  -10.5010 O.3     1  UNL1       -0.3099
@<TRIPOS>BOND
     1     2     1    1
     2     3     2    2
     3     5     4    1
     4     6     5    1
     5     7     5    1
     6     8     7    1
     7     9     8    1
     8    10     5    1
     9    10     9    1
    10    11     2    1
    11    10    11    1
