@<TRIPOS>MOLECULE
6ZWE_QRH_A602
 41 45 0 0 0
SMALL
GASTEIGER

@<TRIPOS>ATOM
      1 C          85.6660   87.6590   -4.8200 C.2     1  UNL1        0.2649
      2 C          86.8420   87.2160   -5.6790 C.2     1  UNL1        0.0595
      3 O          84.5900   87.2340   -5.0980 O.2     1  UNL1       -0.2684
      4 C          87.3550   85.9980   -5.3790 C.2     1  UNL1        0.0047
      5 C          88.4110   85.0810   -5.8860 C.2     1  UNL1        0.0001
      6 C          89.7030   84.8060   -6.0310 C.2     1  UNL1        0.0001
      7 C          90.2850   83.5860   -6.7570 C.ar    1  UNL1        0.0032
      8 C          90.2510   83.4320   -8.1720 C.ar    1  UNL1        0.0402
      9 C          90.7640   82.3090   -8.8090 C.ar    1  UNL1        0.1764
     10 C          91.6360   80.7590  -10.2520 C.3     1  UNL1        0.4294
     11 C          91.3440   81.2510   -8.0630 C.ar    1  UNL1        0.1764
     12 C          91.3880   81.3590   -6.6910 C.ar    1  UNL1        0.0402
     13 C          90.8600   82.5130   -6.0630 C.ar    1  UNL1        0.0033
     14 C          87.2110   89.0570   -3.4430 C.3     1  UNL1        0.1155
     15 C          87.9380   88.0070   -2.5440 C.3     1  UNL1        0.0234
     16 C          89.4110   87.6390   -2.9090 C.3     1  UNL1        0.0018
     17 C          90.4420   87.4450   -1.7310 C.3     1  UNL1        0.0004
     18 C          90.4520   88.5420   -0.5470 C.3     1  UNL1        0.0053
     19 C          89.8080   90.0030   -0.7010 C.3     1  UNL1        0.0292
     20 C          87.7020   89.6350    1.6070 C.ar    1  UNL1       -0.0019
     21 C          86.3240   89.8390    1.8820 C.ar    1  UNL1        0.0002
     22 C          85.4650   88.9780    2.5980 C.ar    1  UNL1        0.0000
     23 C          85.9380   87.7810    3.1270 C.ar    1  UNL1        0.0000
     24 C          87.2890   87.5060    2.8980 C.ar    1  UNL1        0.0000
     25 C          88.1170   88.3990    2.1710 C.ar    1  UNL1        0.0002
     26 C          87.6550   91.9870   -0.2860 C.ar    1  UNL1       -0.0019
     27 C          86.4140   91.6260   -0.8790 C.ar    1  UNL1        0.0002
     28 C          85.5520   92.4930   -1.5860 C.ar    1  UNL1        0.0000
     29 C          85.8780   93.8320   -1.7660 C.ar    1  UNL1        0.0000
     30 C          87.0880   94.2490   -1.2070 C.ar    1  UNL1        0.0000
     31 C          87.9200   93.3540   -0.5040 C.ar    1  UNL1        0.0002
     32 C          89.9630   91.6810    1.7200 C.ar    1  UNL1       -0.0019
     33 C          90.0980   91.4940    3.1120 C.ar    1  UNL1        0.0002
     34 C          91.0490   92.1340    3.9330 C.ar    1  UNL1        0.0000
     35 C          91.9760   93.0320    3.4040 C.ar    1  UNL1        0.0000
     36 C          91.9040   93.2530    2.0300 C.ar    1  UNL1        0.0000
     37 C          90.9410   92.5930    1.2480 C.ar    1  UNL1        0.0002
     38 N          85.9000   88.5640   -3.7730 N.am    1  UNL1       -0.2017
     39 O          90.8470   81.9500  -10.1420 O.3     1  UNL1       -0.4346
     40 O          91.7720   80.2680   -8.9190 O.3     1  UNL1       -0.4346
     41 P          88.7550   90.8490    0.6300 P.3     1  UNL1       -0.0305
@<TRIPOS>BOND
     1     2     1    1
     2     3     1    2
     3     4     2    2
     4     5     4    1
     5     6     5    2
     6     7     6    1
     7     8     7   ar
     8     9     8   ar
     9    11     9   ar
    10    12    11   ar
    11    13    12   ar
    12    13     7   ar
    13    15    14    1
    14    16    15    1
    15    17    16    1
    16    18    17    1
    17    19    18    1
    18    21    20   ar
    19    22    21   ar
    20    23    22   ar
    21    24    23   ar
    22    25    24   ar
    23    25    20   ar
    24    27    26   ar
    25    28    27   ar
    26    29    28   ar
    27    30    29   ar
    28    31    30   ar
    29    31    26   ar
    30    33    32   ar
    31    34    33   ar
    32    35    34   ar
    33    36    35   ar
    34    37    32   ar
    35    37    36   ar
    36    38     1   am
    37    38    14    1
    38    39    10    1
    39    39     9    1
    40    40    11    1
    41    40    10    1
    42    41    32    1
    43    41    26    1
    44    41    20    1
    45    41    19    1
