@<TRIPOS>MOLECULE
8AEV_LWU_A601
 27 29 0 0 0
SMALL
GASTEIGER

@<TRIPOS>ATOM
      1 C          89.7900   85.1480   -3.9930 C.3     1  UNL1        0.1590
      2 C          90.8230   82.6220   -6.1330 C.2     1  UNL1        0.3371
      3 C          91.7490   81.4570   -6.2640 C.3     1  UNL1        0.4111
      4 C          92.5210   81.2220   -8.5890 C.ar    1  UNL1        0.2905
      5 C          92.4420   80.6260   -9.8350 C.ar    1  UNL1        0.0758
      6 C          91.4870   79.6070  -10.0370 C.ar    1  UNL1        0.0126
      7 C          90.6230   79.2060   -8.9940 C.ar    1  UNL1        0.0758
      8 C          90.7180   79.8250   -7.7520 C.ar    1  UNL1        0.2905
      9 C          88.9580   86.3390   -3.6540 C.ar    1  UNL1        0.0816
     10 C          87.7550   86.6630   -4.3020 C.ar    1  UNL1        0.0387
     11 CA         87.0540   87.8130   -3.8370 C.ar    1  UNL1        0.1527
     12 C          85.7430   88.2170   -4.4750 C.3     1  UNL1        0.4656
     13 C          88.6800   88.2030   -2.2210 C.ar    1  UNL1        0.1618
     14 C          89.1440   89.0770   -1.1030 C.ar    1  UNL1        0.0358
     15 C          88.2590   90.0090   -0.5380 C.ar    1  UNL1        0.0030
     16 C          88.6820   90.8360    0.5100 C.ar    1  UNL1        0.0001
     17 C          89.9940   90.7350    0.9970 C.ar    1  UNL1        0.0000
     18 C          90.8780   89.8020    0.4340 C.ar    1  UNL1        0.0001
     19 C          90.4570   88.9760   -0.6140 C.ar    1  UNL1        0.0030
     20 N          91.6680   80.8100   -7.5640 N.ar    1  UNL1       -0.1513
     21 N          90.6440   83.3170   -5.0580 N.am    1  UNL1       -0.1052
     22 N          89.7070   84.4150   -5.0690 N.3     1  UNL1       -0.1018
     23 N          87.5020   88.5760   -2.8150 N.ar    1  UNL1       -0.2232
     24 N          89.4230   87.1030   -2.5910 N.ar    1  UNL1       -0.2294
     25 O          90.1610   82.8890   -7.3120 O.2     1  UNL1       -0.2643
     26 O          85.7770   87.9470   -5.8480 O.2     1  UNL1       -0.2599
     27 OXT        85.5120   89.6290   -4.2850 O.2     1  UNL1       -0.2599
@<TRIPOS>UNITY_ATOM_ATTR
20 1
charge 1
@<TRIPOS>BOND
     1     3     2    1
     2     5     4   ar
     3     6     5   ar
     4     7     6   ar
     5     8     7   ar
     6     9     1    1
     7    10     9   ar
     8    11    10   ar
     9    12    11    1
    10    14    13    1
    11    15    14   ar
    12    16    15   ar
    13    17    16   ar
    14    18    17   ar
    15    19    18   ar
    16    19    14   ar
    17    20     8   ar
    18    20     4   ar
    19    20     3    1
    20    21     2   am
    21    22    21    1
    22    22     1    1
    23    23    11   ar
    24    23    13   ar
    25    24     9   ar
    26    24    13   ar
    27    25     2    2
    28    12    26    1
    29    27    12    1
