@<TRIPOS>MOLECULE
8DT7_3VI_A601
 19 20 0 0 0
SMALL
GASTEIGER

@<TRIPOS>ATOM
      1 C          91.8830   92.3910    3.7700 C.2     1  UNL1        0.1453
      2 C          89.1910   86.1280   -3.8450 C.2     1  UNL1        0.1453
      3 C          90.8220   90.5760    2.5630 C.ar    1  UNL1        0.0777
      4 C          90.5680   92.8550    1.8300 C.ar    1  UNL1        0.0777
      5 C          90.1580   87.6070   -2.1790 C.ar    1  UNL1        0.0777
      6 C          87.9480   88.0030   -3.0420 C.ar    1  UNL1        0.0777
      7 C          90.0230   90.1300    1.5090 C.ar    1  UNL1        0.2959
      8 C          89.7740   92.4170    0.7820 C.ar    1  UNL1        0.2959
      9 C          90.0500   88.7320   -1.3610 C.ar    1  UNL1        0.2959
     10 C          87.8310   89.1190   -2.2310 C.ar    1  UNL1        0.2959
     11 C          88.6230   90.7220   -0.5610 C.3     1  UNL1        0.6618
     12 C          91.0920   91.9350    2.7220 C.ar    1  UNL1        0.0348
     13 C          89.1080   87.2440   -3.0200 C.ar    1  UNL1        0.0348
     14 N          92.4890   93.5680    3.5560 N.2     1  UNL1       -0.0278
     15 N          88.1030   85.9190   -4.6030 N.2     1  UNL1       -0.0278
     16 N          89.5030   91.0610    0.5930 N.ar    1  UNL1       -0.0874
     17 N          88.8690   89.4980   -1.3760 N.ar    1  UNL1       -0.0874
     18 O          93.3380   94.0840    4.6340 O.2     1  UNL1       -0.1431
     19 O          88.1150   84.7660   -5.4960 O.2     1  UNL1       -0.1431
@<TRIPOS>UNITY_ATOM_ATTR
16 1
charge 1
17 1
charge 1
@<TRIPOS>BOND
     1     7     3   ar
     2     8     4   ar
     3     9     5   ar
     4    10     6   ar
     5    12     3   ar
     6    12     1    1
     7    12     4   ar
     8    13     2    1
     9    13     6   ar
    10    13     5   ar
    11    14     1    2
    12    15     2    2
    13    16    11    1
    14    16     8   ar
    15    16     7   ar
    16    17    11    1
    17    17    10   ar
    18    17     9   ar
    19    18    14    1
    20    19    15    1
