@<TRIPOS>MOLECULE
4M0E_1YL_B605
 21 24 0 0 0
SMALL
GASTEIGER

@<TRIPOS>ATOM
      1 C          90.3170   91.5280    0.8240 C.3     1  UNL1        0.0310
      2 C          89.0260   91.3540   -0.1040 C.ar    1  UNL1       -0.0218
      3 C          87.9600   92.3520   -0.1040 C.ar    1  UNL1       -0.0043
      4 C          86.7910   92.1720   -0.9620 C.ar    1  UNL1       -0.0003
      5 C          86.6820   90.9840   -1.8170 C.ar    1  UNL1        0.0001
      6 C          87.7490   89.9700   -1.8030 C.ar    1  UNL1        0.0030
      7 C          88.9210   90.1750   -0.9500 C.ar    1  UNL1       -0.0039
      8 C          90.0160   89.2020   -0.8940 C.ar    1  UNL1       -0.0002
      9 C          89.9540   88.0050   -1.7180 C.ar    1  UNL1        0.0031
     10 C          88.7950   87.8110   -2.5820 C.ar    1  UNL1        0.0370
     11 C          87.6750   88.7720   -2.6390 C.ar    1  UNL1        0.0451
     12 C          86.5240   88.5030   -3.5600 C.2     1  UNL1        0.2340
     13 O          85.5360   89.2870   -3.6730 O.2     1  UNL1       -0.2832
     14 C          86.5020   87.2940   -4.3780 C.2     1  UNL1        0.2332
     15 O          85.5200   87.0410   -5.1470 O.2     1  UNL1       -0.2834
     16 C          87.6790   86.2910   -4.2800 C.2     1  UNL1        0.0572
     17 C          88.7610   86.5350   -3.4400 C.2     1  UNL1        0.1378
     18 O          89.7670   85.4270   -3.5270 O.2     1  UNL1       -0.4753
     19 C          89.0440   84.2810   -4.1760 C.3     1  UNL1        0.2098
     20 C          87.8910   84.9120   -5.0800 C.3     1  UNL1        0.0723
     21 C          88.3430   85.2110   -6.6110 C.3     1  UNL1        0.0088
@<TRIPOS>BOND
     1     2     1    1
     2     3     2   ar
     3     4     3   ar
     4     5     4   ar
     5     6     5   ar
     6     7     6   ar
     7     7     2   ar
     8     8     7   ar
     9     9     8   ar
    10    10     9   ar
    11    11    10   ar
    12    11     6   ar
    13    12    11    1
    14    13    12    2
    15    14    12    1
    16    15    14    2
    17    16    14    1
    18    17    16    2
    19    17    10    1
    20    18    17    1
    21    19    18    1
    22    20    19    1
    23    20    16    1
    24    20    21    1
