@<TRIPOS>MOLECULE
6NTN_HI6_A601
 21 22 0 0 0
SMALL
GASTEIGER

@<TRIPOS>ATOM
      1 O          94.2350   93.9060   -0.8830 O.2     1  UNL1       -0.2667
      2 C          94.2060   93.3500   -1.9310 C.2     1  UNL1        0.2846
      3 N          95.1570   93.6910   -2.9740 N.am    1  UNL1       -0.0837
      4 C          93.1730   92.2610   -2.2130 C.ar    1  UNL1        0.0689
      5 C          93.2290   91.6010   -3.3940 C.ar    1  UNL1        0.0805
      6 C          92.3110   90.6100   -3.6820 C.ar    1  UNL1        0.2924
      7 N          91.3560   90.3110   -2.7800 N.ar    1  UNL1       -0.1308
      8 C          91.2990   90.9550   -1.5920 C.ar    1  UNL1        0.2924
      9 C          92.2190   91.9510   -1.3030 C.ar    1  UNL1        0.0805
     10 C          90.4010   89.2680   -3.0750 C.3     1  UNL1        0.4916
     11 O          90.7550   88.1820   -2.2720 O.3     1  UNL1       -0.2192
     12 C          89.6730   87.5090   -1.6940 C.3     1  UNL1        0.4914
     13 N          89.2900   86.3740   -2.5170 N.ar    1  UNL1       -0.1344
     14 C          90.1790   85.3990   -2.8580 C.ar    1  UNL1        0.2513
     15 C          91.6520   85.4210   -2.4270 C.2     1  UNL1        0.2139
     16 N          92.5070   85.1810   -3.3100 N.2     1  UNL1       -0.0214
     17 O          93.8810   85.1740   -3.0340 O.2     1  UNL1       -0.1429
     18 C          89.7630   84.3380   -3.6480 C.ar    1  UNL1        0.0713
     19 C          88.4840   84.2640   -4.0710 C.ar    1  UNL1        0.0125
     20 C          87.6050   85.2300   -3.7250 C.ar    1  UNL1        0.0759
     21 C          88.0140   86.2970   -2.9470 C.ar    1  UNL1        0.2921
@<TRIPOS>UNITY_ATOM_ATTR
7 1
charge 1
13 1
charge 1
@<TRIPOS>BOND
     1     2     1    2
     2     3     2   am
     3     4     2    1
     4     5     4   ar
     5     6     5   ar
     6     7     6   ar
     7     8     7   ar
     8     9     8   ar
     9     9     4   ar
    10    10     7    1
    11    11    10    1
    12    12    11    1
    13    13    12    1
    14    14    13   ar
    15    15    14    1
    16    16    15    2
    17    17    16    1
    18    18    14   ar
    19    19    18   ar
    20    20    19   ar
    21    21    20   ar
    22    21    13   ar
