@<TRIPOS>MOLECULE
6O5R_LND_B601
 20 21 0 0 0
SMALL
GASTEIGER

@<TRIPOS>ATOM
      1 C          88.5420   90.9600   -0.2350 C.ar    1  UNL1        0.2903
      2 C          88.6390   91.7030    0.9090 C.ar    1  UNL1        0.0804
      3 C          89.6650   91.4330    1.8090 C.ar    1  UNL1        0.0689
      4 C          89.7570   92.2570    3.0570 C.2     1  UNL1        0.2846
      5 O          88.7720   92.8720    3.4650 O.2     1  UNL1       -0.2667
      6 N          90.9440   92.2750    3.6580 N.am    1  UNL1       -0.0837
      7 C          90.5630   90.4120    1.5190 C.ar    1  UNL1        0.0804
      8 C          90.4180   89.6970    0.3580 C.ar    1  UNL1        0.2903
      9 N          89.4180   89.9790   -0.4870 N.ar    1  UNL1       -0.1595
     10 C          89.2670   89.2150   -1.7390 C.3     1  UNL1        0.3244
     11 C          89.4380   87.7170   -1.5850 C.3     1  UNL1        0.1097
     12 C          89.9090   87.0890   -2.9000 C.3     1  UNL1        0.1149
     13 N          88.8620   86.5360   -3.7660 N.ar    1  UNL1       -0.3087
     14 C          88.9580   85.2240   -4.1550 C.ar    1  UNL1        0.0980
     15 C          87.8770   84.9690   -4.9560 C.ar    1  UNL1        0.1192
     16 N          87.1140   86.0970   -5.0770 N.ar    1  UNL1       -0.2235
     17 C          87.7230   87.0350   -4.3580 C.ar    1  UNL1        0.1668
     18 C          87.2520   88.3980   -4.2070 C.2     1  UNL1        0.1818
     19 N          86.0380   88.7170   -4.4660 N.2     1  UNL1       -0.0246
     20 O          85.2140   87.6800   -4.8910 O.2     1  UNL1       -0.1430
@<TRIPOS>UNITY_ATOM_ATTR
9 1
charge 1
@<TRIPOS>BOND
     1     2     1   ar
     2     3     2   ar
     3     4     3    1
     4     5     4    2
     5     6     4   am
     6     7     3   ar
     7     8     7   ar
     8     9     8   ar
     9     9     1   ar
    10    10     9    1
    11    11    10    1
    12    12    11    1
    13    13    12    1
    14    14    13   ar
    15    15    14   ar
    16    16    15   ar
    17    17    16   ar
    18    17    13   ar
    19    18    17    1
    20    19    18    2
    21    20    19    1
