@<TRIPOS>MOLECULE
6WUZ_UCJ_B602
 7 6 0 0 0
SMALL
GASTEIGER

@<TRIPOS>ATOM
      1  O1        90.4450   84.1740  -12.1300 O.3   602  UCJ602     -0.1774
      2  P1        89.1610   83.7150  -12.0250 P.3   602  UCJ602      0.2205
      3  C1        88.1940   85.1520  -12.3740 C.3   602  UCJ602      0.0904
      4  O2        88.8680   83.5420  -10.5640 O.3   602  UCJ602     -0.3199
      5  C2        89.8490   83.4710   -9.5910 C.3   602  UCJ602      0.1215
      6  C4        89.9730   84.8250   -8.9530 C.3   602  UCJ602      0.0325
      7  C3        89.3670   82.4500   -8.5860 C.3   602  UCJ602      0.0325
@<TRIPOS>BOND
     1     3     2    1
     2     1     2    1
     3     2     4    1
     4     4     5    1
     5     5     6    1
     6     5     7    1
