@<TRIPOS>MOLECULE
6WV1_UCJ_A607
 7 6 0 0 0
SMALL
GASTEIGER

@<TRIPOS>ATOM
      1  O1        90.4150   84.2670  -12.4940 O.3   607  UCJ607     -0.1774
      2  P1        89.1530   83.7050  -12.2730 P.3   607  UCJ607      0.2205
      3  C1        87.9420   85.0360  -12.5420 C.3   607  UCJ607      0.0904
      4  O2        88.8900   83.5860  -10.7500 O.3   607  UCJ607     -0.3199
      5  C2        89.9110   83.6060   -9.8640 C.3   607  UCJ607      0.1215
      6  C4        89.5300   84.5540   -8.7400 C.3   607  UCJ607      0.0325
      7  C3        89.9480   82.1980   -9.3410 C.3   607  UCJ607      0.0325
@<TRIPOS>BOND
     1     3     2    1
     2     1     2    1
     3     2     4    1
     4     4     5    1
     5     5     7    1
     6     5     6    1
