@<TRIPOS>MOLECULE
6WVC_UCY_B604
 10 9 0 0 0
SMALL
GASTEIGER

@<TRIPOS>ATOM
      1  C10       88.0560   84.7730  -11.1440 C.3   604  UCY604      0.0904
      2  P09       89.2330   83.5060  -11.8370 P.3   604  UCY604      0.2205
      3  O12       90.4220   84.2150  -12.3340 O.3   604  UCY604     -0.1774
      4  C01       90.3890   79.7950   -9.7890 C.3   604  UCY604      0.0024
      5  C02       91.4050   80.9370   -9.7460 C.3   604  UCY604      0.0254
      6  C03       92.0630   80.9820   -8.3640 C.3   604  UCY604      0.0024
      7  C04       92.4540   80.5500  -10.7780 C.3   604  UCY604      0.0024
      8  C06       90.6470   83.2700   -8.8410 C.3   604  UCY604      0.0325
      9  C07       90.8270   82.3460  -10.0640 C.3   604  UCY604      0.1212
     10  O08       89.5700   82.3260  -10.7130 O.3   604  UCY604     -0.3199
@<TRIPOS>BOND
     1     3     2    1
     2     2     1    1
     3     2    10    1
     4     7     5    1
     5    10     9    1
     6     9     5    1
     7     9     8    1
     8     4     5    1
     9     5     6    1
