@<TRIPOS>MOLECULE
6CQV_HI6_A601
 21 22 0 0 0
SMALL
GASTEIGER

@<TRIPOS>ATOM
      1 O          89.5640   87.0700   -1.6430 O.2     1  UNL1       -0.2667
      2 C          90.5350   86.4160   -1.8190 C.2     1  UNL1        0.2846
      3 N          91.6120   86.4340   -0.8480 N.am    1  UNL1       -0.0837
      4 C          90.6600   85.5610   -3.0760 C.ar    1  UNL1        0.0689
      5 C          91.8830   85.3420   -3.6150 C.ar    1  UNL1        0.0805
      6 C          92.0030   84.5690   -4.7580 C.ar    1  UNL1        0.2924
      7 N          90.8980   84.0410   -5.3320 N.ar    1  UNL1       -0.1308
      8 C          89.6750   84.2590   -4.7960 C.ar    1  UNL1        0.2924
      9 C          89.5520   85.0320   -3.6530 C.ar    1  UNL1        0.0805
     10 C          91.0370   83.2350   -6.5280 C.3     1  UNL1        0.4916
     11 O          92.0740   82.3220   -6.3130 O.3     1  UNL1       -0.2192
     12 C          91.6770   80.9880   -6.4230 C.3     1  UNL1        0.4914
     13 N          91.8570   80.5450   -7.7890 N.ar    1  UNL1       -0.1344
     14 C          90.9990   79.6410   -8.3040 C.ar    1  UNL1        0.2513
     15 C          89.8590   79.1230   -7.4300 C.2     1  UNL1        0.2139
     16 N          89.2970   78.0400   -7.6840 N.2     1  UNL1       -0.0214
     17 O          88.2490   77.5940   -6.8610 O.2     1  UNL1       -0.1429
     18 C          91.1540   79.2040   -9.6110 C.ar    1  UNL1        0.0713
     19 C          92.1740   79.6890  -10.3610 C.ar    1  UNL1        0.0125
     20 C          93.0380   80.5950   -9.8390 C.ar    1  UNL1        0.0759
     21 C          92.8780   81.0280   -8.5330 C.ar    1  UNL1        0.2921
@<TRIPOS>UNITY_ATOM_ATTR
7 1
charge 1
13 1
charge 1
@<TRIPOS>BOND
     1     2     1    2
     2     3     2   am
     3     4     2    1
     4     5     4   ar
     5     6     5   ar
     6     7     6   ar
     7     8     7   ar
     8     9     8   ar
     9     9     4   ar
    10    10     7    1
    11    11    10    1
    12    12    11    1
    13    13    12    1
    14    14    13   ar
    15    15    14    1
    16    16    15    2
    17    17    16    1
    18    18    14   ar
    19    19    18   ar
    20    20    19   ar
    21    21    13   ar
    22    21    20   ar
