@<TRIPOS>MOLECULE
6NTK_L0S_B605
 12 11 0 0 0
SMALL
GASTEIGER

@<TRIPOS>ATOM
      1  C13       87.6540   85.3360  -11.2920 C.3   605  L0S605      0.1850
      2  C01       90.0040   80.1560   -7.3810 C.3   605  L0S605      0.0551
      3  C02       91.1190   81.0160   -7.9720 C.3   605  L0S605      0.2021
      4  C04       91.4860   79.9960  -10.2400 C.3   605  L0S605      0.2021
      5  C05       92.9980   80.1100  -10.4200 C.3   605  L0S605      0.0551
      6  C06       90.3720   82.2400  -10.0360 C.2   605  L0S605      0.3021
      7  C07       89.8520   83.3850   -9.1700 C.3   605  L0S605      0.1297
      8  N03       90.9920   81.0840   -9.4160 N.pl3 605  L0S605     -0.1942
      9  N08       90.2630   82.2980  -11.2790 N.2   605  L0S605     -0.0061
     10  O11       90.4530   84.7920  -11.9440 O.3   605  L0S605     -0.1269
     11  O12       88.1440   84.0280  -11.2050 O.3   605  L0S605     -0.2786
     12  P09       89.5360   83.6560  -12.0060 P.3   605  L0S605      0.4747
@<TRIPOS>BOND
     1    12    10    1
     2    12     9    1
     3    12    11    1
     4     1    11    1
     5     9     6    2
     6     5     4    1
     7     4     8    1
     8     6     8    1
     9     6     7    1
    10     8     3    1
    11     3     2    1
