@<TRIPOS>MOLECULE
6CQT_VX_A607
 6 5 0 0 0
SMALL
GASTEIGER

@<TRIPOS>ATOM
      1  P1        88.9940   83.9140  -12.0390 P.3   607  VX607       0.2205
      2  O1        90.4280   84.3280  -12.2680 O.3   607  VX607      -0.1774
      3  O2        88.8470   83.2490  -10.5390 O.3   607  VX607      -0.3173
      4  C1        87.8900   85.4060  -12.1670 C.3   607  VX607       0.0904
      5  C2        89.9010   83.4070   -9.6330 C.3   607  VX607       0.1487
      6  C3        89.7030   84.6990   -8.8430 C.3   607  VX607       0.0351
@<TRIPOS>BOND
     1     2     1    1
     2     4     1    1
     3     1     3    1
     4     3     5    1
     5     5     6    1
