@<TRIPOS>MOLECULE
4BDT_HUW_A701
 22 25 0 0 0
SMALL
GASTEIGER

@<TRIPOS>ATOM
      1 O          89.6750   84.4620  -11.1860 O.3     1  UNL1       -0.2201
      2 CL         87.1900   76.6700   -3.6490 Cl      1  UNL1       -0.0822
      3 C          88.3820   77.7570   -4.2450 C.ar    1  UNL1        0.0592
      4 N          89.7810   78.6890   -7.4310 N.ar    1  UNL1       -0.2499
      5 C          89.5760   78.6700   -6.1050 C.ar    1  UNL1        0.0830
      6 C          90.7280   79.5280   -8.0080 C.ar    1  UNL1        0.0566
      7 N          92.0330   81.1650   -5.0980 N.pl3   1  UNL1       -0.1283
      8 C          91.2970   80.3520   -5.9110 C.ar    1  UNL1        0.0876
      9 C          88.6130   77.8050   -5.6110 C.ar    1  UNL1        0.0305
     10 C          89.1100   78.5690   -3.3820 C.ar    1  UNL1        0.0115
     11 C          90.3230   79.4980   -5.2680 C.ar    1  UNL1        0.0342
     12 C          90.8110   79.4250   -9.5240 C.3     1  UNL1        0.0498
     13 C          91.4930   80.3570   -7.2670 C.ar    1  UNL1        0.0082
     14 C          91.4740   80.6710  -10.1240 C.3     1  UNL1        0.0276
     15 C          90.5610   81.8700   -9.9160 C.2     1  UNL1       -0.0344
     16 C          92.8120   80.8430   -9.3720 C.3     1  UNL1        0.0095
     17 C          90.7460   82.7760   -8.9570 C.2     1  UNL1       -0.0456
     18 C          91.9000   82.6960   -7.9680 C.3     1  UNL1        0.0262
     19 C          89.8100   83.9530   -8.7990 C.3     1  UNL1        0.0572
     20 C          92.5170   81.2790   -7.9220 C.3     1  UNL1        0.0292
     21 C          88.9060   84.0710  -10.0420 C.3     1  UNL1        0.1864
     22 C          90.0820   79.4400   -3.8840 C.ar    1  UNL1        0.0037
@<TRIPOS>BOND
     1     3     2    1
     2     5     4   ar
     3     6     4   ar
     4     8     7    1
     5     9     5   ar
     6     9     3   ar
     7    10     3   ar
     8    11     8   ar
     9    11     5   ar
    10    12     6    1
    11    13     8   ar
    12    13     6   ar
    13    14    12    1
    14    15    14    1
    15    16    14    1
    16    17    15    2
    17    18    17    1
    18    19    17    1
    19    20    13    1
    20    20    18    1
    21    20    16    1
    22    21     1    1
    23    21    19    1
    24    22    11   ar
    25    22    10   ar
