@<TRIPOS>MOLECULE
8DT4_3VI_B602
 19 20 0 0 0
SMALL
GASTEIGER

@<TRIPOS>ATOM
      1 C          87.1170   87.3220   -4.1840 C.2     1  UNL1        0.1453
      2 C          88.2450   91.1090    4.5140 C.2     1  UNL1        0.1453
      3 C          87.3580   89.2170   -2.7110 C.ar    1  UNL1        0.0777
      4 C          89.2130   87.7220   -3.0830 C.ar    1  UNL1        0.0777
      5 C          88.6220   89.6960    2.6000 C.ar    1  UNL1        0.0777
      6 C          89.3910   91.9810    2.5900 C.ar    1  UNL1        0.0777
      7 C          88.1390   89.9860   -1.8510 C.ar    1  UNL1        0.2959
      8 C          90.0040   88.4770   -2.2270 C.ar    1  UNL1        0.2959
      9 C          89.1310   89.5090    1.3190 C.ar    1  UNL1        0.2959
     10 C          89.9020   91.8080    1.3100 C.ar    1  UNL1        0.2959
     11 C          90.3300   90.4120   -0.6950 C.3     1  UNL1        0.6618
     12 C          87.8950   88.0900   -3.3250 C.ar    1  UNL1        0.0348
     13 C          88.7520   90.9280    3.2330 C.ar    1  UNL1        0.0348
     14 N          87.7270   86.2250   -4.6560 N.2     1  UNL1       -0.0278
     15 N          88.6870   92.2070    5.1450 N.2     1  UNL1       -0.0278
     16 N          89.4700   89.6130   -1.6020 N.ar    1  UNL1       -0.0874
     17 N          89.7720   90.5720    0.6670 N.ar    1  UNL1       -0.0874
     18 O          86.9750   85.3910   -5.5470 O.2     1  UNL1       -0.1431
     19 O          88.1870   92.4440    6.4980 O.2     1  UNL1       -0.1431
@<TRIPOS>UNITY_ATOM_ATTR
16 1
charge 1
17 1
charge 1
@<TRIPOS>BOND
     1     7     3   ar
     2     8     4   ar
     3     9     5   ar
     4    10     6   ar
     5    12     1    1
     6    12     4   ar
     7    12     3   ar
     8    13     6   ar
     9    13     5   ar
    10    13     2    1
    11    14     1    2
    12    15     2    2
    13    16    11    1
    14    16     8   ar
    15    16     7   ar
    16    17    11    1
    17    17    10   ar
    18    17     9   ar
    19    18    14    1
    20    19    15    1
