@<TRIPOS>MOLECULE
6O52_EBW_A601
 30 31 0 0 0
SMALL
GASTEIGER

@<TRIPOS>ATOM
      1 C          87.7120   85.9510   -5.4590 C.2     1  UNL1        0.1513
      2 C          88.1290   86.5200   -4.1230 C.3     1  UNL1        0.0692
      3 C          88.3270   84.6660   -5.9730 C.3     1  UNL1        0.0692
      4 C          87.9620   88.0230   -4.1130 C.3     1  UNL1        0.0341
      5 C          88.2500   88.6220   -2.7560 C.ar    1  UNL1       -0.0214
      6 C          87.2280   89.2270   -2.0430 C.ar    1  UNL1        0.0016
      7 C          87.4870   89.7750   -0.7970 C.ar    1  UNL1        0.0627
      8 C          88.7680   89.7230   -0.2740 C.ar    1  UNL1        0.1660
      9 C          89.7890   89.1140   -0.9840 C.ar    1  UNL1        0.0627
     10 N          91.8450   80.2900   -9.1950 N.pl3   1  UNL1       -0.3119
     11 N          89.0260   90.2740    1.0050 N.pl3   1  UNL1       -0.3119
     12 C          89.5300   88.5640   -2.2280 C.ar    1  UNL1        0.0016
     13 C          89.1440   84.9170   -7.2230 C.3     1  UNL1        0.0341
     14 C          89.8560   83.6870   -7.7450 C.ar    1  UNL1       -0.0214
     15 C          90.9520   83.1810   -7.0650 C.ar    1  UNL1        0.0016
     16 C          91.6090   82.0560   -7.5450 C.ar    1  UNL1        0.0627
     17 C          91.1690   81.4400   -8.7080 C.ar    1  UNL1        0.1660
     18 C          90.0740   81.9500   -9.3890 C.ar    1  UNL1        0.0627
     19 C          89.4210   83.0710   -8.9070 C.ar    1  UNL1        0.0016
     20 C          91.2730   79.8740  -10.4250 C.3     1  UNL1        0.3354
     21 C          93.2150   80.6100   -9.3790 C.3     1  UNL1        0.3354
     22 C          91.7120   79.2410   -8.2490 C.3     1  UNL1        0.2836
     23 C          90.2560   79.0270   -7.8990 C.2     1  UNL1        0.0513
     24 C          89.2720   89.1810    1.8810 C.3     1  UNL1        0.2836
     25 C          87.8880   91.0030    1.4410 C.3     1  UNL1        0.3354
     26 C          90.1540   91.1340    0.9510 C.3     1  UNL1        0.3354
     27 C          88.7270   89.4310    3.2700 C.2     1  UNL1        0.0513
     28 C          88.3870   88.3840    4.0520 C.2     1  UNL1        0.0020
     29 C          89.9150   78.1380   -6.9450 C.2     1  UNL1        0.0020
     30 O          86.8770   86.5370   -6.1180 O.2     1  UNL1       -0.2960
@<TRIPOS>UNITY_ATOM_ATTR
10 1
charge 1
11 1
charge 1
@<TRIPOS>BOND
     1     2     1    1
     2     3     1    1
     3     4     2    1
     4     5     4    1
     5     6     5   ar
     6     7     6   ar
     7     8     7   ar
     8     9     8   ar
     9    11     8    1
    10    12     9   ar
    11    12     5   ar
    12    13     3    1
    13    14    13    1
    14    15    14   ar
    15    16    15   ar
    16    17    10    1
    17    17    16   ar
    18    18    17   ar
    19    19    18   ar
    20    19    14   ar
    21    10    20    1
    22    21    10    1
    23    22    10    1
    24    23    22    1
    25    24    11    1
    26    11    25    1
    27    26    11    1
    28    27    24    1
    29    28    27    2
    30    29    23    2
    31    30     1    2
