@<TRIPOS>MOLECULE
6CQV_VX_A607
 6 5 0 0 0
SMALL
GASTEIGER

@<TRIPOS>ATOM
      1  P1        89.0170   83.7030  -11.8080 P.3   607  VX607       0.2205
      2  O1        90.1630   84.4300  -12.4690 O.3   607  VX607      -0.1774
      3  O2        87.9080   84.7970  -11.2710 O.3   607  VX607      -0.3173
      4  C1        89.6570   82.7110  -10.3700 C.3   607  VX607       0.0904
      5  C2        87.0430   85.3820  -12.2010 C.3   607  VX607       0.1487
      6  C3        85.6020   85.0100  -11.8610 C.3   607  VX607       0.0351
@<TRIPOS>BOND
     1     2     1    1
     2     5     6    1
     3     5     3    1
     4     1     3    1
     5     1     4    1
