@<TRIPOS>MOLECULE
5HFA_DEP_A604
 8 7 0 0 0
SMALL
GASTEIGER

@<TRIPOS>ATOM
      1 C          86.7420   85.5510  -12.0100 C.3     1  UNL1        0.1520
      2 C          85.9140   84.4510  -12.6890 C.3     1  UNL1        0.0352
      3 C          89.3390   82.8430   -9.7840 C.3     1  UNL1        0.1520
      4 C          89.6760   83.7090   -8.5640 C.3     1  UNL1        0.0352
      5 O          88.0900   85.4210  -12.4010 O.3     1  UNL1       -0.2864
      6 O          88.5500   83.6870  -10.6510 O.3     1  UNL1       -0.2864
      7 O          90.4170   84.3630  -12.3270 O.2     1  UNL1       -0.2453
      8 P          88.9650   84.0990  -12.1510 P.3     1  UNL1        0.4438
@<TRIPOS>BOND
     1     2     1    1
     2     4     3    1
     3     5     1    1
     4     6     3    1
     5     8     7    2
     6     8     5    1
     7     8     6    1
