@<TRIPOS>MOLECULE
6CQY_VX_B606
 7 6 0 0 0
SMALL
GASTEIGER

@<TRIPOS>ATOM
      1 P          91.5370   80.5580   -9.9120 P.3     1  UNL1        0.3704
      2 O          90.9520   81.2560  -11.1120 O.2     1  UNL1       -0.2555
      3 O          91.1070   81.3650   -8.5420 O.3     1  UNL1       -0.2927
      4 C          90.8680   78.8270   -9.8160 C.3     1  UNL1        0.1309
      5 C          91.4750   80.8130   -7.3130 C.3     1  UNL1        0.1515
      6 C          91.6220   81.9370   -6.2940 C.3     1  UNL1        0.0352
      7 O          93.0420   80.5120  -10.0290 O.3     1  UNL1       -0.1398
@<TRIPOS>BOND
     1     2     1    2
     2     3     1    1
     3     4     1    1
     4     5     3    1
     5     6     5    1
     6     7     1    1
