@<TRIPOS>MOLECULE
6WUY_HI6_A606
 21 22 0 0 0
SMALL
GASTEIGER

@<TRIPOS>ATOM
      1 O          90.2260   93.1250   -6.6090 O.2     1  UNL1       -0.2667
      2 C          91.0450   92.7590   -5.8400 C.2     1  UNL1        0.2846
      3 N          92.3230   93.4410   -5.7560 N.am    1  UNL1       -0.0837
      4 C          90.8090   91.7430   -5.0360 C.ar    1  UNL1        0.0689
      5 C          89.5750   91.1150   -5.0000 C.ar    1  UNL1        0.0805
      6 C          89.3990   90.0480   -4.1240 C.ar    1  UNL1        0.2924
      7 N          90.4040   89.6530   -3.3400 N.ar    1  UNL1       -0.1308
      8 C          91.5850   90.2530   -3.3700 C.ar    1  UNL1        0.2924
      9 C          91.8300   91.3150   -4.2150 C.ar    1  UNL1        0.0805
     10 C          90.2570   88.5540   -2.4090 C.3     1  UNL1        0.4916
     11 O          89.1140   87.8190   -2.7050 O.3     1  UNL1       -0.2192
     12 C          89.1410   86.6210   -1.9960 C.3     1  UNL1        0.4914
     13 N          89.1340   85.5890   -3.0060 N.ar    1  UNL1       -0.1344
     14 C          90.2830   85.0020   -3.3260 C.ar    1  UNL1        0.2513
     15 C          91.3960   85.3660   -2.7160 C.2     1  UNL1        0.2139
     16 N          92.6220   85.6070   -3.4600 N.2     1  UNL1       -0.0214
     17 O          93.5580   84.5800   -3.6460 O.2     1  UNL1       -0.1429
     18 C          90.3050   84.0100   -4.3000 C.ar    1  UNL1        0.0713
     19 C          89.1150   83.6620   -4.9190 C.ar    1  UNL1        0.0125
     20 C          87.9480   84.3060   -4.5460 C.ar    1  UNL1        0.0759
     21 C          87.9890   85.2830   -3.5780 C.ar    1  UNL1        0.2921
@<TRIPOS>UNITY_ATOM_ATTR
7 1
charge 1
13 1
charge 1
@<TRIPOS>BOND
     1     2     1    2
     2     3     2   am
     3     4     2    1
     4     5     4   ar
     5     6     5   ar
     6     7     6   ar
     7     8     7   ar
     8     9     8   ar
     9     9     4   ar
    10    10     7    1
    11    11    10    1
    12    12    11    1
    13    13    12    1
    14    14    13   ar
    15    15    14    1
    16    16    15    2
    17    17    16    1
    18    18    14   ar
    19    19    18   ar
    20    20    19   ar
    21    21    20   ar
    22    21    13   ar
