@<TRIPOS>MOLECULE
5HF8_EFS_B605
 6 5 0 0 0
SMALL
GASTEIGER

@<TRIPOS>ATOM
      1  C12       85.8850   84.8190  -12.2970 C.3   605  EFS605      0.0352
      2  C11       86.8940   85.1420  -11.1900 C.3   605  EFS605      0.1531
      3  O2        88.0950   85.2230  -11.7100 O.3   605  EFS605     -0.2749
      4  P         89.1160   83.7290  -11.9200 P.3   605  EFS605      0.5410
      5  O4        89.0360   83.0790  -10.5490 O.2   605  EFS605     -0.2272
      6  O1        90.4520   84.3390  -12.3100 O.2   605  EFS605     -0.2272
@<TRIPOS>BOND
     1     6     4    2
     2     1     2    1
     3     4     3    1
     4     4     5    2
     5     3     2    1
