@<TRIPOS>MOLECULE
7P1N_4J1_aa601
 35 37 0 0 0
SMALL
GASTEIGER

@<TRIPOS>ATOM
      1 C          92.6360   92.7480    3.3410 C.3     1  UNL1        0.2142
      2 C          91.4650   92.9630    2.4340 C.3     1  UNL1        0.1835
      3 C          89.7710   91.8180    1.0280 C.3     1  UNL1        0.2695
      4 C          89.8490   88.2810   -1.6290 C.3     1  UNL1        0.0494
      5 C          88.6800   84.7310   -4.9240 C.3     1  UNL1        0.1292
      6 C          88.3310   90.6970   -0.4240 C.3     1  UNL1        0.1449
      7 C          87.8390   89.2680   -0.4650 C.3     1  UNL1        0.0326
      8 C          89.0360   88.3310   -0.3420 C.3     1  UNL1        0.0090
      9 C          89.4580   86.3030   -3.2320 C.ar    1  UNL1        0.1131
     10 C          89.9680   84.0480   -4.4300 C.3     1  UNL1        0.0268
     11 C          90.7070   83.3060   -5.5330 C.3     1  UNL1        0.0083
     12 O          92.9850   93.9600    3.9560 O.3     1  UNL1       -0.2176
     13 C          89.0950   87.5470   -2.7360 C.ar    1  UNL1        0.1008
     14 C          89.6720   82.6210   -6.4190 C.3     1  UNL1        0.0459
     15 C          89.8020   83.0180   -7.8740 C.ar    1  UNL1        0.0592
     16 C          90.4430   82.3960  -10.0110 C.ar    1  UNL1        0.1422
     17 C          91.0260   81.3030  -10.9120 C.2     1  UNL1        0.1672
     18 C          90.0600   83.6490  -10.5220 C.ar    1  UNL1        0.2148
     19 C          89.5300   84.6040   -9.6450 C.ar    1  UNL1        0.0449
     20 C          89.4020   84.2820   -8.2950 C.ar    1  UNL1        0.0180
     21 C          88.6050   92.2170    1.9470 C.3     1  UNL1        0.2406
     22 C          89.0980   92.7180    3.2710 C.3     1  UNL1        0.2198
     23 C          90.3000   93.6000    3.1990 C.3     1  UNL1        0.2144
     24 N          88.6080   85.9790   -4.1830 N.ar    1  UNL1       -0.2306
     25 N          90.2890   82.1320   -8.7200 N.ar    1  UNL1       -0.2447
     26 N          91.8790   80.4820  -10.5010 N.2     1  UNL1       -0.0261
     27 N          87.7010   86.9740   -4.3260 N.ar    1  UNL1       -0.0641
     28 N          88.0080   87.9570   -3.4120 N.ar    1  UNL1       -0.1331
     29 O          91.0320   91.6750    1.7870 O.3     1  UNL1       -0.3256
     30 O          89.4580   90.6400    0.4010 O.3     1  UNL1       -0.3286
     31 O          92.3780   80.5040   -9.1880 O.2     1  UNL1       -0.1431
     32 O          90.2040   83.9790  -11.8830 O.3     1  UNL1       -0.2849
     33 O          87.7780   93.2010    1.2960 O.3     1  UNL1       -0.2149
     34 O          89.3960   91.5550    4.1230 O.3     1  UNL1       -0.2174
     35 O          89.9600   94.8590    2.5670 O.3     1  UNL1       -0.2176
@<TRIPOS>BOND
     1     2     1    1
     2     7     6    1
     3     8     7    1
     4     8     4    1
     5    10     5    1
     6    11    10    1
     7    12     1    1
     8    13     9   ar
     9    13     4    1
    10    14    11    1
    11    15    14    1
    12    17    16    1
    13    18    16   ar
    14    19    18   ar
    15    20    19   ar
    16    20    15   ar
    17    21     3    1
    18    22    21    1
    19    23    22    1
    20    23     2    1
    21    24     9   ar
    22    24     5    1
    23    25    16   ar
    24    25    15   ar
    25    26    17    2
    26    27    24   ar
    27    28    27   ar
    28    28    13   ar
    29    29     3    1
    30    29     2    1
    31    30     6    1
    32     3    30    1
    33    31    26    1
    34    32    18    1
    35    21    33    1
    36    22    34    1
    37    23    35    1
