@<TRIPOS>MOLECULE
8GGP_G1I_R501
 15 16 0 0 0
SMALL
GASTEIGER

@<TRIPOS>ATOM
      1 C         -29.3920   11.6100    6.7230 C.ar    1  UNL1        0.0014
      2 C         -28.2020   12.1090    6.2370 C.ar    1  UNL1        0.0451
      3 C         -27.1110   11.2700    5.9590 C.ar    1  UNL1        0.2339
      4 C         -27.2880    9.8540    6.2050 C.ar    1  UNL1        0.2300
      5 C         -28.5410    9.3530    6.7120 C.ar    1  UNL1        0.0185
      6 C         -29.6040   10.2400    6.9770 C.ar    1  UNL1        0.0084
      7 C         -28.7070    7.8460    6.9670 C.3     1  UNL1        0.0310
      8 C         -30.1510    7.2920    7.1880 C.3     1  UNL1        0.0251
      9 C         -31.2980    8.2830    6.9180 C.3     1  UNL1        0.1077
     10 C         -30.9400    9.6870    7.5180 C.3     1  UNL1        0.1899
     11 C         -33.0410    6.5030    6.8290 C.3     1  UNL1        0.1075
     12 N         -32.5900    7.7700    7.4260 N.3     1  UNL1       -0.2150
     13 O         -26.2860    9.0280    5.9590 O.3     1  UNL1       -0.2835
     14 O         -25.9400   11.6960    5.4910 O.3     1  UNL1       -0.2832
     15 O         -31.9770   10.5530    7.1880 O.3     1  UNL1       -0.2168
@<TRIPOS>BOND
     1     2     1   ar
     2     3     2   ar
     3     4     3   ar
     4     5     4   ar
     5     6     5   ar
     6     6     1   ar
     7     7     5    1
     8     8     7    1
     9     9     8    1
    10    10     9    1
    11    10     6    1
    12    12    11    1
    13     9    12    1
    14    13     4    1
    15    14     3    1
    16    10    15    1
