@<TRIPOS>MOLECULE
3PDS_ERC_A1201
 31 33 0 0 0
SMALL
GASTEIGER

@<TRIPOS>ATOM
      1 C         -25.9930    7.6030    7.3430 C.ar    1  UNL1        0.2794
      2 N         -26.0190    8.8170    6.7590 N.ar    1  UNL1       -0.2046
      3 O         -24.9220    6.9580    7.3690 O.2     1  UNL1       -0.2652
      4 S         -39.3360    1.6710    7.0570 S.3     1  UNL1       -0.0820
      5 C         -27.1400    7.0460    7.9230 C.ar    1  UNL1        0.0625
      6 N         -32.5770    7.5770    7.4140 N.3     1  UNL1       -0.2147
      7 O         -26.1000   11.4300    5.5100 O.3     1  UNL1       -0.2850
      8 C         -28.3530    7.7400    7.9190 C.ar    1  UNL1        0.0063
      9 O         -31.8140   10.3610    8.1480 O.3     1  UNL1       -0.2167
     10 C         -28.3980    8.9930    7.3140 C.ar    1  UNL1        0.0195
     11 O         -37.7180    5.6640   10.1030 O.3     1  UNL1       -0.4684
     12 C         -27.1510    9.5390    6.7130 C.ar    1  UNL1        0.1230
     13 O         -37.0900    2.9550   10.2390 O.3     1  UNL1       -0.4724
     14 C         -27.2130   10.8850    6.0740 C.ar    1  UNL1        0.2132
     15 C         -28.4210   11.5860    6.0600 C.ar    1  UNL1        0.0434
     16 C         -29.5950   11.0690    6.6200 C.ar    1  UNL1        0.0016
     17 C         -29.6370    9.8250    7.2610 C.ar    1  UNL1        0.0108
     18 C         -30.9050    9.3020    7.8230 C.3     1  UNL1        0.1916
     19 C         -31.5420    8.3780    6.7940 C.3     1  UNL1        0.1261
     20 C         -32.9820    6.3370    6.7850 C.3     1  UNL1        0.0935
     21 C         -34.4750    6.3070    6.4840 C.3     1  UNL1        0.0452
     22 C         -35.1670    5.4130    7.4850 C.ar    1  UNL1       -0.0175
     23 C         -34.8560    4.0540    7.5470 C.ar    1  UNL1       -0.0009
     24 C         -35.5030    3.2330    8.4730 C.ar    1  UNL1        0.0397
     25 C         -36.4650    3.7700    9.3310 C.ar    1  UNL1        0.1722
     26 C         -36.7730    5.1270    9.2690 C.ar    1  UNL1        0.1721
     27 C         -36.1250    5.9490    8.3470 C.ar    1  UNL1        0.0358
     28 C         -39.0190    5.9520    9.5960 C.3     1  UNL1        0.2526
     29 C         -38.4410    2.5510   10.0320 C.3     1  UNL1        0.2065
     30 C         -38.4730    1.1050    9.5500 C.3     1  UNL1        0.0598
     31 C         -38.0700    0.9990    8.0840 C.3     1  UNL1        0.0725
@<TRIPOS>BOND
     1     2     1   ar
     2     3     1    2
     3     5     1   ar
     4     8     5   ar
     5    10     8   ar
     6    12    10   ar
     7    12     2   ar
     8    14    12   ar
     9    14     7    1
    10    15    14   ar
    11    16    15   ar
    12    17    10   ar
    13    17    16   ar
    14    18    17    1
    15    18     9    1
    16    19    18    1
    17    19     6    1
    18    20     6    1
    19    21    20    1
    20    22    21    1
    21    23    22   ar
    22    24    23   ar
    23    25    24   ar
    24    25    13    1
    25    26    25   ar
    26    26    11    1
    27    27    26   ar
    28    27    22   ar
    29    28    11    1
    30    29    13    1
    31    30    29    1
    32    31    30    1
    33    31     4    1
