@<TRIPOS>MOLECULE
8GEC_G1I_R501
 15 16 0 0 0
SMALL
GASTEIGER

@<TRIPOS>ATOM
      1 C         -30.1590   11.3170    7.2810 C.ar    1  UNL1        0.0014
      2 C         -29.0170   11.9770    6.8700 C.ar    1  UNL1        0.0451
      3 C         -27.8640   11.2810    6.4820 C.ar    1  UNL1        0.2339
      4 C         -27.9240    9.8340    6.5340 C.ar    1  UNL1        0.2300
      5 C         -29.1270    9.1700    6.9650 C.ar    1  UNL1        0.0185
      6 C         -30.2520    9.9140    7.3440 C.ar    1  UNL1        0.0084
      7 C         -29.1840    7.6450    7.0190 C.3     1  UNL1        0.0310
      8 C         -30.5830    6.9570    6.9120 C.3     1  UNL1        0.0251
      9 C         -31.8180    7.8740    6.9560 C.3     1  UNL1        0.1077
     10 C         -31.5220    9.1630    7.8010 C.3     1  UNL1        0.1899
     11 C         -34.2220    7.2690    6.6420 C.3     1  UNL1        0.1075
     12 N         -33.0020    7.1390    7.4590 N.3     1  UNL1       -0.2150
     13 O         -26.8610    9.1310    6.1790 O.3     1  UNL1       -0.2835
     14 O         -26.7380   11.8650    6.0780 O.3     1  UNL1       -0.2832
     15 O         -32.6310    9.9940    7.6750 O.3     1  UNL1       -0.2168
@<TRIPOS>BOND
     1     2     1   ar
     2     3     2   ar
     3     4     3   ar
     4     5     4   ar
     5     6     5   ar
     6     6     1   ar
     7     7     5    1
     8     8     7    1
     9     9     8    1
    10    10     9    1
    11    10     6    1
    12    12    11    1
    13     9    12    1
    14    13     4    1
    15    14     3    1
    16    10    15    1
