@<TRIPOS>MOLECULE
5X7D_CAU_A1206
 22 24 0 0 0
SMALL
GASTEIGER

@<TRIPOS>ATOM
      1 O         -33.5860   10.9070    8.2580 O.3     1  UNL1       -0.2176
      2 C         -32.3790   10.1710    8.1570 C.3     1  UNL1        0.2126
      3 C         -32.5860    8.8810    7.3580 C.3     1  UNL1        0.1253
      4 N         -33.8200    8.1930    7.7270 N.3     1  UNL1       -0.2167
      5 C         -33.9320    6.7480    7.6460 C.3     1  UNL1        0.0730
      6 C         -33.6420    6.3030    6.2130 C.3     1  UNL1        0.0188
      7 C         -35.3200    6.3090    8.1230 C.3     1  UNL1        0.0188
      8 C         -31.3380   11.0280    7.4820 C.3     1  UNL1        0.2395
      9 O         -30.1470   10.2810    7.3270 O.3     1  UNL1       -0.4726
     10 C         -29.0190   10.7540    6.7350 C.ar    1  UNL1        0.1401
     11 C         -28.9820   12.0210    6.1400 C.ar    1  UNL1        0.0370
     12 C         -27.8270   12.4990    5.5370 C.ar    1  UNL1        0.0047
     13 C         -26.6710   11.7390    5.5040 C.ar    1  UNL1        0.0193
     14 C         -26.6440   10.4970    6.0660 C.ar    1  UNL1        0.0842
     15 C         -27.8600    9.9970    6.6990 C.ar    1  UNL1        0.0530
     16 N         -25.6800    9.5250    6.1940 N.ar    1  UNL1       -0.2453
     17 C         -26.2000    8.4410    6.8660 C.ar    1  UNL1        0.0814
     18 C         -27.5880    8.7570    7.1800 C.ar    1  UNL1        0.0220
     19 C         -25.7060    7.2210    7.2640 C.ar    1  UNL1        0.0191
     20 C         -26.5280    6.3310    7.9460 C.ar    1  UNL1        0.0015
     21 C         -27.8520    6.6430    8.2390 C.ar    1  UNL1        0.0001
     22 C         -28.3910    7.8570    7.8600 C.ar    1  UNL1        0.0016
@<TRIPOS>BOND
     1     2     1    1
     2     3     2    1
     3     4     3    1
     4     5     4    1
     5     5     6    1
     6     7     5    1
     7     8     2    1
     8     9     8    1
     9    10     9    1
    10    11    10   ar
    11    12    11   ar
    12    13    12   ar
    13    14    13   ar
    14    15    10   ar
    15    15    14   ar
    16    16    14   ar
    17    17    16   ar
    18    18    15   ar
    19    18    17   ar
    20    19    17   ar
    21    20    19   ar
    22    21    20   ar
    23    22    21   ar
    24    22    18   ar
