@<TRIPOS>MOLECULE
8GGK_G1I_R501
 15 16 0 0 0
SMALL
GASTEIGER

@<TRIPOS>ATOM
      1 C         -29.5100   11.7330    6.6830 C.ar    1  UNL1        0.0014
      2 C         -28.3150   12.2560    6.2360 C.ar    1  UNL1        0.0451
      3 C         -27.1860   11.4430    6.0390 C.ar    1  UNL1        0.2339
      4 C         -27.3300   10.0310    6.3230 C.ar    1  UNL1        0.2300
      5 C         -28.5840    9.5060    6.7860 C.ar    1  UNL1        0.0185
      6 C         -29.6860   10.3650    6.9720 C.ar    1  UNL1        0.0084
      7 C         -28.7090    8.0080    7.0820 C.3     1  UNL1        0.0310
      8 C         -30.1440    7.4150    7.2260 C.3     1  UNL1        0.0251
      9 C         -31.2940    8.3640    6.8490 C.3     1  UNL1        0.1077
     10 C         -31.0190    9.7770    7.4650 C.3     1  UNL1        0.1899
     11 C         -32.8650    6.4390    6.8290 C.3     1  UNL1        0.1075
     12 N         -32.6100    7.8200    7.2460 N.3     1  UNL1       -0.2150
     13 O         -26.2960    9.2300    6.1520 O.3     1  UNL1       -0.2835
     14 O         -26.0110   11.8930    5.6120 O.3     1  UNL1       -0.2832
     15 O         -32.0700   10.6070    7.0910 O.3     1  UNL1       -0.2168
@<TRIPOS>BOND
     1     2     1   ar
     2     3     2   ar
     3     4     3   ar
     4     5     4   ar
     5     6     5   ar
     6     6     1   ar
     7     7     5    1
     8     8     7    1
     9     9     8    1
    10    10     9    1
    11    10     6    1
    12    12    11    1
    13     9    12    1
    14    13     4    1
    15    14     3    1
    16    10    15    1
