@<TRIPOS>MOLECULE
8JJ8_H98_F501
 25 26 0 0 0
SMALL
GASTEIGER

@<TRIPOS>ATOM
      1 C         -33.5870    6.2430    5.4390 C.3     1  UNL1        0.0192
      2 C         -33.4850    6.6660    6.9030 C.3     1  UNL1        0.0773
      3 C         -34.7200    6.3690    7.6470 C.3     1  UNL1        0.0437
      4 C         -34.6050    4.9880    8.3160 C.ar    1  UNL1       -0.0206
      5 C         -34.0270    4.8700    9.5840 C.ar    1  UNL1       -0.0011
      6 C         -33.9260    3.6100   10.1900 C.ar    1  UNL1        0.0366
      7 C         -34.4150    2.4840    9.5350 C.ar    1  UNL1        0.1387
      8 C         -34.9770    2.5990    8.2680 C.ar    1  UNL1        0.0366
      9 C         -35.0780    3.8620    7.6600 C.ar    1  UNL1       -0.0011
     10 O         -34.3280    1.2600   10.1480 O.3     1  UNL1       -0.4714
     11 C         -35.2630    0.9650   11.1900 C.3     1  UNL1        0.2525
     12 N         -33.1760    8.1390    7.0310 N.3     1  UNL1       -0.2161
     13 C         -31.7230    8.3470    7.0820 C.3     1  UNL1        0.1260
     14 C         -31.4490    9.7850    7.5930 C.3     1  UNL1        0.1916
     15 C         -30.1340   10.3270    7.0020 C.ar    1  UNL1        0.0106
     16 C         -29.0200    9.4870    6.8800 C.ar    1  UNL1        0.0181
     17 C         -27.8450    9.9800    6.3510 C.ar    1  UNL1        0.1124
     18 C         -27.7630   11.3290    5.9350 C.ar    1  UNL1        0.2108
     19 C         -28.8600   12.1550    6.0580 C.ar    1  UNL1        0.0432
     20 C         -30.0550   11.6570    6.5940 C.ar    1  UNL1        0.0016
     21 O         -26.5610   11.8370    5.3940 O.3     1  UNL1       -0.2852
     22 N         -26.6990    9.1650    6.2100 N.am    1  UNL1       -0.1683
     23 C         -26.6060    7.8620    6.4800 C.2     1  UNL1        0.3247
     24 O         -25.6120    7.1690    6.3060 O.2     1  UNL1       -0.2629
     25 O         -32.4880   10.6070    7.2270 O.3     1  UNL1       -0.2167
@<TRIPOS>BOND
     1     2     1    1
     2     3     2    1
     3     4     3    1
     4     5     4   ar
     5     6     5   ar
     6     7     6   ar
     7     8     7   ar
     8     9     8   ar
     9     9     4   ar
    10    10     7    1
    11    11    10    1
    12    12     2    1
    13    13    12    1
    14    14    13    1
    15    15    14    1
    16    16    15   ar
    17    17    16   ar
    18    18    17   ar
    19    19    18   ar
    20    20    15   ar
    21    20    19   ar
    22    21    18    1
    23    22    17    1
    24    23    22   am
    25    24    23    2
    26    14    25    1
