@<TRIPOS>MOLECULE
6PS4_JRZ_A1201
 20 21 0 0 0
SMALL
GASTEIGER

@<TRIPOS>ATOM
      1 C         -26.0130    9.2370    6.5590 C.3     1  UNL1        0.0262
      2 N         -34.0070    7.9510    7.4060 N.3     1  UNL1       -0.2182
      3 O         -30.3140   10.7350    7.8200 O.3     1  UNL1       -0.4730
      4 C         -26.8810    8.1670    7.2180 C.3     1  UNL1        0.0094
      5 O         -33.7910   10.4760    8.1780 O.3     1  UNL1       -0.2176
      6 C         -27.9920    8.9310    7.9390 C.3     1  UNL1        0.0294
      7 C         -28.1480   10.1380    7.0570 C.ar    1  UNL1        0.0075
      8 C         -27.0170   10.3210    6.2710 C.ar    1  UNL1       -0.0272
      9 C         -26.9470   11.3980    5.3460 C.ar    1  UNL1       -0.0259
     10 C         -25.7580   11.6170    4.4480 C.3     1  UNL1        0.0307
     11 C         -28.0500   12.2720    5.2430 C.ar    1  UNL1       -0.0015
     12 C         -29.1930   12.0810    6.0200 C.ar    1  UNL1        0.0362
     13 C         -29.2550   11.0010    6.9400 C.ar    1  UNL1        0.1343
     14 C         -31.6440   10.9810    7.3550 C.3     1  UNL1        0.2394
     15 C         -32.5130    9.8880    7.9750 C.3     1  UNL1        0.2111
     16 C         -32.6000    8.5090    7.2540 C.3     1  UNL1        0.1068
     17 C         -32.2260    8.5190    5.7630 C.3     1  UNL1        0.0216
     18 C         -34.2700    6.4630    7.5140 C.3     1  UNL1        0.0729
     19 C         -35.4040    6.2660    8.5250 C.3     1  UNL1        0.0188
     20 C         -34.7450    5.9610    6.1460 C.3     1  UNL1        0.0188
@<TRIPOS>BOND
     1     4     1    1
     2     6     4    1
     3     7     6    1
     4     8     7   ar
     5     8     1    1
     6     9     8   ar
     7    10     9    1
     8    11     9   ar
     9    12    11   ar
    10    13     7   ar
    11    13     3    1
    12    13    12   ar
    13    14     3    1
    14    15     5    1
    15    15    14    1
    16    16     2    1
    17    16    15    1
    18    16    17    1
    19    18     2    1
    20    18    19    1
    21    20    18    1
