@<TRIPOS>MOLECULE
6PS0_CAU_A1201
 22 24 0 0 0
SMALL
GASTEIGER

@<TRIPOS>ATOM
      1 O         -33.1720   10.9890    8.1300 O.3     1  UNL1       -0.2176
      2 C         -32.0380   10.1770    8.0860 C.3     1  UNL1        0.2126
      3 C         -32.3620    8.6810    7.9950 C.3     1  UNL1        0.1253
      4 N         -33.5920    8.4370    7.2560 N.3     1  UNL1       -0.2167
      5 C         -33.7730    7.0210    6.9740 C.3     1  UNL1        0.0730
      6 C         -35.0490    6.5320    7.6600 C.3     1  UNL1        0.0188
      7 C         -33.9300    6.8040    5.4690 C.3     1  UNL1        0.0188
      8 C         -31.1420   10.6190    6.9420 C.3     1  UNL1        0.2395
      9 O         -29.9450   11.0400    7.5310 O.3     1  UNL1       -0.4726
     10 C         -28.8650   11.2320    6.6520 C.ar    1  UNL1        0.1401
     11 C         -28.7160   12.4550    5.9970 C.ar    1  UNL1        0.0370
     12 C         -27.6170   12.6930    5.1750 C.ar    1  UNL1        0.0047
     13 C         -26.6490   11.7060    5.0120 C.ar    1  UNL1        0.0193
     14 C         -26.7740   10.4730    5.6880 C.ar    1  UNL1        0.0842
     15 C         -27.8610   10.2320    6.5110 C.ar    1  UNL1        0.0530
     16 N         -25.9610    9.3650    5.7040 N.ar    1  UNL1       -0.2453
     17 C         -26.5210    8.4250    6.5310 C.ar    1  UNL1        0.0814
     18 C         -27.6950    8.9540    7.0430 C.ar    1  UNL1        0.0220
     19 C         -26.1090    7.1160    6.8660 C.ar    1  UNL1        0.0191
     20 C         -26.8930    6.3580    7.7330 C.ar    1  UNL1        0.0015
     21 C         -28.0780    6.8860    8.2570 C.ar    1  UNL1        0.0001
     22 C         -28.4810    8.1810    7.9310 C.ar    1  UNL1        0.0016
@<TRIPOS>BOND
     1     2     1    1
     2     3     2    1
     3     4     3    1
     4     5     4    1
     5     5     6    1
     6     7     5    1
     7     8     2    1
     8     9     8    1
     9    10     9    1
    10    11    10   ar
    11    12    11   ar
    12    13    12   ar
    13    14    13   ar
    14    15    10   ar
    15    15    14   ar
    16    16    14   ar
    17    17    16   ar
    18    18    15   ar
    19    18    17   ar
    20    19    17   ar
    21    20    19   ar
    22    21    20   ar
    23    22    21   ar
    24    22    18   ar
