@<TRIPOS>MOLECULE
3NYA_JTZ_A1203
 18 18 0 0 0
SMALL
GASTEIGER

@<TRIPOS>ATOM
      1 C         -33.7710    6.6930    5.6750 C.3     1  UNL1        0.0188
      2 N         -33.8240    8.1030    7.7100 N.3     1  UNL1       -0.2167
      3 O         -33.9320   10.8170    7.8910 O.3     1  UNL1       -0.2176
      4 C         -33.7680    6.7150    7.2030 C.3     1  UNL1        0.0730
      5 O         -30.3120   10.5470    7.4900 O.3     1  UNL1       -0.4730
      6 C         -34.9540    5.9370    7.7660 C.3     1  UNL1        0.0188
      7 C         -32.6350    8.8590    7.2930 C.3     1  UNL1        0.1253
      8 C         -32.6320   10.2210    7.9650 C.3     1  UNL1        0.2126
      9 C         -31.6110   11.0840    7.2500 C.3     1  UNL1        0.2395
     10 C         -29.2050   10.9760    6.7990 C.ar    1  UNL1        0.1350
     11 C         -29.3050   12.0390    5.9020 C.ar    1  UNL1        0.0366
     12 C         -28.1860   12.4720    5.2030 C.ar    1  UNL1        0.0031
     13 C         -26.9600   11.8500    5.3960 C.ar    1  UNL1       -0.0001
     14 C         -26.8520   10.7980    6.2880 C.ar    1  UNL1       -0.0009
     15 C         -27.9720   10.3590    6.9920 C.ar    1  UNL1        0.0162
     16 C         -27.8210    9.2100    7.9610 C.3     1  UNL1        0.0554
     17 C         -27.1370    8.0660    7.2600 C.2     1  UNL1       -0.0213
     18 C         -25.8490    7.8470    7.4380 C.2     1  UNL1       -0.0046
@<TRIPOS>BOND
     1     4     2    1
     2     4     1    1
     3     6     4    1
     4     7     2    1
     5     8     3    1
     6     8     7    1
     7     9     8    1
     8     9     5    1
     9    10     5    1
    10    11    10   ar
    11    12    11   ar
    12    13    12   ar
    13    14    13   ar
    14    15    10   ar
    15    15    14   ar
    16    16    15    1
    17    17    16    1
    18    18    17    2
