@<TRIPOS>MOLECULE
3P0G_P0G_A366
 27 29 0 0 0
SMALL
GASTEIGER

@<TRIPOS>ATOM
      1 C         -34.8740    3.4910    5.6850 C.3     1  UNL1        0.0307
      2 C         -32.6230    6.3930    5.6310 C.3     1  UNL1        0.0178
      3 C         -32.2070    6.0230    8.0760 C.3     1  UNL1        0.0178
      4 O         -25.2960    7.1650    7.1910 O.2     1  UNL1       -0.2689
      5 O         -26.2170   11.6660    5.5370 O.3     1  UNL1       -0.2851
      6 O         -32.1530   10.8910    7.6270 O.3     1  UNL1       -0.2166
      7 C         -35.2760    2.5080    9.3350 C.ar    1  UNL1       -0.0003
      8 C         -35.1270    3.7430    9.9770 C.ar    1  UNL1       -0.0003
      9 C         -35.1860    2.4640    7.9470 C.ar    1  UNL1       -0.0046
     10 C         -34.9070    4.9200    9.2510 C.ar    1  UNL1       -0.0045
     11 C         -28.4970   12.0470    6.1240 C.ar    1  UNL1        0.0434
     12 C         -29.7060   11.5880    6.6290 C.ar    1  UNL1        0.0046
     13 C         -27.4270    7.5710    7.9770 C.3     1  UNL1        0.2915
     14 C         -31.7400    8.7030    6.7800 C.3     1  UNL1        0.1261
     15 C         -34.5990    6.2610    7.1610 C.3     1  UNL1        0.0421
     16 N         -33.0330    8.1720    7.2700 N.3     1  UNL1       -0.2174
     17 N         -26.2990    9.1250    6.5560 N.am    1  UNL1       -0.1697
     18 O         -28.7280    8.1840    7.6760 O.3     1  UNL1       -0.4644
     19 C         -26.2810    7.9100    7.2440 C.2     1  UNL1        0.2903
     20 C         -34.9700    3.6410    7.2100 C.ar    1  UNL1       -0.0258
     21 C         -27.3790   11.2230    6.0850 C.ar    1  UNL1        0.2138
     22 C         -34.8220    4.8940    7.8550 C.ar    1  UNL1       -0.0248
     23 C         -29.8120   10.2970    7.1390 C.ar    1  UNL1        0.0446
     24 C         -27.4500    9.9420    6.6140 C.ar    1  UNL1        0.1458
     25 C         -28.6640    9.4660    7.1560 C.ar    1  UNL1        0.1560
     26 C         -31.1980    9.8260    7.6730 C.3     1  UNL1        0.1945
     27 C         -33.1220    6.7110    7.0450 C.3     1  UNL1        0.0636
@<TRIPOS>BOND
     1     8     7   ar
     2     9     7   ar
     3    10     8   ar
     4    12    11   ar
     5    16    14    1
     6    18    13    1
     7    19    13    1
     8    19    17   am
     9    19     4    2
    10    20     9   ar
    11    20     1    1
    12    21    11   ar
    13    21     5    1
    14    22    20   ar
    15    22    10   ar
    16    22    15    1
    17    23    12   ar
    18    24    21   ar
    19    24    17    1
    20    25    24   ar
    21    25    23   ar
    22    25    18    1
    23    26    23    1
    24    26    14    1
    25    26     6    1
    26    27    16    1
    27    27    15    1
    28    27     3    1
    29    27     2    1
