@<TRIPOS>MOLECULE
8GE8_G1I_R501
 15 16 0 0 0
SMALL
GASTEIGER

@<TRIPOS>ATOM
      1 C         -29.9290   11.5350    7.0480 C.ar    1  UNL1        0.0014
      2 C         -28.7620   12.1360    6.6170 C.ar    1  UNL1        0.0451
      3 C         -27.6470   11.3850    6.2120 C.ar    1  UNL1        0.2339
      4 C         -27.7740    9.9410    6.2670 C.ar    1  UNL1        0.2300
      5 C         -29.0010    9.3360    6.7200 C.ar    1  UNL1        0.0185
      6 C         -30.0860   10.1360    7.1170 C.ar    1  UNL1        0.0084
      7 C         -29.1240    7.8130    6.7760 C.3     1  UNL1        0.0310
      8 C         -30.5570    7.1870    6.6920 C.3     1  UNL1        0.0251
      9 C         -31.7440    8.1750    6.7320 C.3     1  UNL1        0.1077
     10 C         -31.3850    9.4420    7.5940 C.3     1  UNL1        0.1899
     11 C         -33.4090    6.3320    6.4290 C.3     1  UNL1        0.1075
     12 N         -32.9900    7.5170    7.2020 N.3     1  UNL1       -0.2150
     13 O         -26.7540    9.1830    5.8990 O.3     1  UNL1       -0.2835
     14 O         -26.4990   11.9190    5.7870 O.3     1  UNL1       -0.2832
     15 O         -32.4610   10.3220    7.5010 O.3     1  UNL1       -0.2168
@<TRIPOS>BOND
     1     2     1   ar
     2     3     2   ar
     3     4     3   ar
     4     5     4   ar
     5     6     5   ar
     6     6     1   ar
     7     7     5    1
     8     8     7    1
     9     9     8    1
    10    10     9    1
    11    10     6    1
    12    12    11    1
    13     9    12    1
    14    13     4    1
    15    14     3    1
    16    10    15    1
