@<TRIPOS>MOLECULE
8GFX_G1I_R501
 15 16 0 0 0
SMALL
GASTEIGER

@<TRIPOS>ATOM
      1 C         -29.4520   11.6710    6.6070 C.ar    1  UNL1        0.0014
      2 C         -28.2700   12.1840    6.1170 C.ar    1  UNL1        0.0451
      3 C         -27.1400   11.3750    5.9400 C.ar    1  UNL1        0.2339
      4 C         -27.2640    9.9770    6.2940 C.ar    1  UNL1        0.2300
      5 C         -28.5040    9.4640    6.8010 C.ar    1  UNL1        0.0185
      6 C         -29.6090   10.3200    6.9630 C.ar    1  UNL1        0.0084
      7 C         -28.6140    7.9820    7.1700 C.3     1  UNL1        0.0310
      8 C         -30.0400    7.3910    7.3850 C.3     1  UNL1        0.0251
      9 C         -31.2000    8.3040    6.9720 C.3     1  UNL1        0.1077
     10 C         -30.9290    9.7480    7.5050 C.3     1  UNL1        0.1899
     11 C         -32.7740    6.3790    7.0460 C.3     1  UNL1        0.1075
     12 N         -32.5040    7.7720    7.4240 N.3     1  UNL1       -0.2150
     13 O         -26.2250    9.1780    6.1440 O.3     1  UNL1       -0.2835
     14 O         -25.9770   11.8160    5.4730 O.3     1  UNL1       -0.2832
     15 O         -31.9900   10.5460    7.0940 O.3     1  UNL1       -0.2168
@<TRIPOS>BOND
     1     2     1   ar
     2     3     2   ar
     3     4     3   ar
     4     5     4   ar
     5     6     5   ar
     6     6     1   ar
     7     7     5    1
     8     8     7    1
     9     9     8    1
    10    10     9    1
    11    10     6    1
    12    12    11    1
    13     9    12    1
    14    13     4    1
    15    14     3    1
    16    10    15    1
