@<TRIPOS>MOLECULE
8GDZ_G1I_R501
 15 16 0 0 0
SMALL
GASTEIGER

@<TRIPOS>ATOM
      1 C         -29.6910   11.5470    6.6280 C.ar    1  UNL1        0.0014
      2 C         -28.5590   12.1480    6.1100 C.ar    1  UNL1        0.0451
      3 C         -27.4030   11.4070    5.8060 C.ar    1  UNL1        0.2339
      4 C         -27.4530    9.9810    6.0620 C.ar    1  UNL1        0.2300
      5 C         -28.6420    9.3760    6.6000 C.ar    1  UNL1        0.0185
      6 C         -29.7700   10.1640    6.8890 C.ar    1  UNL1        0.0084
      7 C         -28.6730    7.8650    6.8660 C.3     1  UNL1        0.0310
      8 C         -30.0720    7.1760    6.9870 C.3     1  UNL1        0.0251
      9 C         -31.2910    8.0960    6.7840 C.3     1  UNL1        0.1077
     10 C         -31.0250    9.4810    7.4620 C.3     1  UNL1        0.1899
     11 C         -33.0270    6.3430    6.4360 C.3     1  UNL1        0.1075
     12 N         -32.5480    7.4680    7.2580 N.3     1  UNL1       -0.2150
     13 O         -26.3910    9.2390    5.7940 O.3     1  UNL1       -0.2835
     14 O         -26.2830   11.9330    5.3060 O.3     1  UNL1       -0.2832
     15 O         -32.1450   10.2680    7.2300 O.3     1  UNL1       -0.2168
@<TRIPOS>BOND
     1     2     1   ar
     2     3     2   ar
     3     4     3   ar
     4     5     4   ar
     5     6     5   ar
     6     6     1   ar
     7     7     5    1
     8     8     7    1
     9     9     8    1
    10    10     9    1
    11    10     6    1
    12    12    11    1
    13     9    12    1
    14    13     4    1
    15    14     3    1
    16    10    15    1
