@<TRIPOS>MOLECULE
8GGB_G1I_R501
 15 16 0 0 0
SMALL
GASTEIGER

@<TRIPOS>ATOM
      1 C         -29.5270   11.4540    6.9690 C.ar    1  UNL1        0.0014
      2 C         -28.3670   12.0520    6.5140 C.ar    1  UNL1        0.0451
      3 C         -27.2680   11.2930    6.0700 C.ar    1  UNL1        0.2339
      4 C         -27.4100    9.8490    6.1110 C.ar    1  UNL1        0.2300
      5 C         -28.6300    9.2510    6.5890 C.ar    1  UNL1        0.0185
      6 C         -29.6940   10.0560    7.0230 C.ar    1  UNL1        0.0084
      7 C         -28.7730    7.7260    6.6300 C.3     1  UNL1        0.0310
      8 C         -30.2170    7.1350    6.4870 C.3     1  UNL1        0.0251
      9 C         -31.3970    8.1310    6.6360 C.3     1  UNL1        0.1077
     10 C         -30.9820    9.3700    7.5240 C.3     1  UNL1        0.1899
     11 C         -32.4140    6.5040    8.2480 C.3     1  UNL1        0.1075
     12 N         -32.6240    7.4590    7.1430 N.3     1  UNL1       -0.2150
     13 O         -26.4100    9.0850    5.7070 O.3     1  UNL1       -0.2835
     14 O         -26.1260   11.8180    5.6220 O.3     1  UNL1       -0.2832
     15 O         -32.0380   10.2780    7.4970 O.3     1  UNL1       -0.2168
@<TRIPOS>BOND
     1     2     1   ar
     2     3     2   ar
     3     4     3   ar
     4     5     4   ar
     5     6     5   ar
     6     6     1   ar
     7     7     5    1
     8     8     7    1
     9     9     8    1
    10    10     9    1
    11    10     6    1
    12    12    11    1
    13     9    12    1
    14    13     4    1
    15    14     3    1
    16    10    15    1
