@<TRIPOS>MOLECULE
8GG2_G1I_R501
 15 16 0 0 0
SMALL
GASTEIGER

@<TRIPOS>ATOM
      1 C         -29.3670   11.6630    6.6230 C.ar    1  UNL1        0.0014
      2 C         -28.1960   12.1790    6.1090 C.ar    1  UNL1        0.0451
      3 C         -27.0780   11.3670    5.8710 C.ar    1  UNL1        0.2339
      4 C         -27.2020    9.9580    6.1880 C.ar    1  UNL1        0.2300
      5 C         -28.4370    9.4390    6.7240 C.ar    1  UNL1        0.0185
      6 C         -29.5300   10.3030    6.9470 C.ar    1  UNL1        0.0084
      7 C         -28.5560    7.9380    7.0580 C.3     1  UNL1        0.0310
      8 C         -29.9910    7.3520    7.2780 C.3     1  UNL1        0.0251
      9 C         -31.1540    8.3030    6.9370 C.3     1  UNL1        0.1077
     10 C         -30.8440    9.7270    7.5160 C.3     1  UNL1        0.1899
     11 C         -32.8080    6.4440    6.8960 C.3     1  UNL1        0.1075
     12 N         -32.4510    7.7750    7.4090 N.3     1  UNL1       -0.2150
     13 O         -26.1720    9.1560    5.9800 O.3     1  UNL1       -0.2835
     14 O         -25.9270   11.8160    5.3780 O.3     1  UNL1       -0.2832
     15 O         -31.9090   10.5530    7.1820 O.3     1  UNL1       -0.2168
@<TRIPOS>BOND
     1     2     1   ar
     2     3     2   ar
     3     4     3   ar
     4     5     4   ar
     5     6     5   ar
     6     6     1   ar
     7     7     5    1
     8     8     7    1
     9     9     8    1
    10    10     9    1
    11    10     6    1
    12    12    11    1
    13     9    12    1
    14    13     4    1
    15    14     3    1
    16    10    15    1
