@<TRIPOS>MOLECULE
6PRZ_JTZ_A1201
 18 18 0 0 0
SMALL
GASTEIGER

@<TRIPOS>ATOM
      1 C         -34.0100    6.7220    5.4860 C.3     1  UNL1        0.0188
      2 N         -33.5010    8.2220    7.4440 N.3     1  UNL1       -0.2167
      3 O         -33.1390   10.9090    8.1360 O.3     1  UNL1       -0.2176
      4 C         -33.7270    6.7960    6.9890 C.3     1  UNL1        0.0730
      5 O         -29.7210   10.1640    7.0810 O.3     1  UNL1       -0.4730
      6 C         -34.9350    6.2860    7.7750 C.3     1  UNL1        0.0188
      7 C         -32.1870    8.8960    7.1340 C.3     1  UNL1        0.1253
      8 C         -31.9500   10.1230    8.0370 C.3     1  UNL1        0.2126
      9 C         -30.8030   11.0060    7.5350 C.3     1  UNL1        0.2395
     10 C         -28.4930   10.6970    6.6440 C.ar    1  UNL1        0.1350
     11 C         -28.3440   11.8980    5.8990 C.ar    1  UNL1        0.0366
     12 C         -27.0760   12.3300    5.4900 C.ar    1  UNL1        0.0031
     13 C         -25.9440   11.5670    5.7860 C.ar    1  UNL1       -0.0001
     14 C         -26.0770   10.3780    6.5120 C.ar    1  UNL1       -0.0009
     15 C         -27.3460    9.9090    6.9460 C.ar    1  UNL1        0.0162
     16 C         -27.4650    8.6080    7.7330 C.3     1  UNL1        0.0554
     17 C         -26.2380    7.7440    7.8440 C.2     1  UNL1       -0.0213
     18 C         -25.8470    6.8420    6.9350 C.2     1  UNL1       -0.0046
@<TRIPOS>BOND
     1     4     2    1
     2     4     1    1
     3     6     4    1
     4     7     2    1
     5     8     3    1
     6     8     7    1
     7     9     8    1
     8     9     5    1
     9    10     5    1
    10    11    10   ar
    11    12    11   ar
    12    13    12   ar
    13    14    13   ar
    14    15    10   ar
    15    15    14   ar
    16    16    15    1
    17    17    16    1
    18    18    17    2
