@<TRIPOS>MOLECULE
9L8L_P0G_R501
 27 29 0 0 0
SMALL
GASTEIGER

@<TRIPOS>ATOM
      1 C         -34.8190    3.9140    6.4510 C.3     1  UNL1        0.0307
      2 C         -32.8120    6.8600    5.5910 C.3     1  UNL1        0.0178
      3 C         -31.9990    6.4580    7.9020 C.3     1  UNL1        0.0178
      4 O         -25.4020    7.1770    6.2010 O.2     1  UNL1       -0.2689
      5 O         -25.9800   12.0440    5.7180 O.3     1  UNL1       -0.2851
      6 O         -31.7080   11.0100    7.9240 O.3     1  UNL1       -0.2166
      7 C         -34.8160    3.3950   10.1680 C.ar    1  UNL1       -0.0003
      8 C         -34.6480    4.6680   10.6450 C.ar    1  UNL1       -0.0003
      9 C         -34.8730    3.1780    8.8110 C.ar    1  UNL1       -0.0046
     10 C         -34.5360    5.7190    9.7640 C.ar    1  UNL1       -0.0045
     11 C         -28.1880   12.2810    6.4350 C.ar    1  UNL1        0.0434
     12 C         -29.3440   11.7520    6.9350 C.ar    1  UNL1        0.0046
     13 C         -27.3270    7.6920    7.5120 C.3     1  UNL1        0.2915
     14 C         -31.5830    9.0810    6.6040 C.3     1  UNL1        0.1261
     15 C         -34.4580    6.7100    7.4710 C.3     1  UNL1        0.0421
     16 N         -32.8300    8.6120    7.1870 N.3     1  UNL1       -0.2174
     17 N         -26.1800    9.2700    6.1480 N.am    1  UNL1       -0.1697
     18 O         -28.5390    8.2720    7.0940 O.3     1  UNL1       -0.4644
     19 C         -26.2150    8.0150    6.5670 C.2     1  UNL1        0.2903
     20 C         -34.7560    4.2180    7.9130 C.ar    1  UNL1       -0.0258
     21 C         -27.1350   11.5000    6.1870 C.ar    1  UNL1        0.2138
     22 C         -34.5530    5.5160    8.3940 C.ar    1  UNL1       -0.0248
     23 C         -29.5170   10.4170    7.1380 C.ar    1  UNL1        0.0446
     24 C         -27.2450   10.1390    6.3920 C.ar    1  UNL1        0.1458
     25 C         -28.4170    9.6050    6.8730 C.ar    1  UNL1        0.1560
     26 C         -30.8520    9.9200    7.6370 C.3     1  UNL1        0.1945
     27 C         -33.0410    7.1600    7.0600 C.3     1  UNL1        0.0636
@<TRIPOS>BOND
     1     8     7   ar
     2     9     7   ar
     3    10     8   ar
     4    12    11   ar
     5    16    14    1
     6    18    13    1
     7    19    13    1
     8    19    17   am
     9    19     4    2
    10    20     9   ar
    11    20     1    1
    12    21    11   ar
    13    21     5    1
    14    22    20   ar
    15    22    15    1
    16    22    10   ar
    17    23    12   ar
    18    24    17    1
    19    24    21   ar
    20    25    23   ar
    21    25    18    1
    22    25    24   ar
    23    26    23    1
    24    26    14    1
    25    26     6    1
    26    27    16    1
    27    27    15    1
    28    27     2    1
    29    27     3    1
