@<TRIPOS>MOLECULE
5D6L_CAU_A1208
 22 24 0 0 0
SMALL
GASTEIGER

@<TRIPOS>ATOM
      1 O         -33.5340   10.9310    8.0900 O.3     1  UNL1       -0.2176
      2 C         -32.3210   10.2470    8.0380 C.3     1  UNL1        0.2126
      3 C         -32.4860    8.9110    7.3280 C.3     1  UNL1        0.1253
      4 N         -33.7930    8.3350    7.6150 N.3     1  UNL1       -0.2167
      5 C         -33.7590    6.8910    7.4550 C.3     1  UNL1        0.0730
      6 C         -33.4490    6.5350    6.0070 C.3     1  UNL1        0.0188
      7 C         -35.1120    6.3110    7.8390 C.3     1  UNL1        0.0188
      8 C         -31.2800   11.0730    7.2790 C.3     1  UNL1        0.2395
      9 O         -30.0720   10.3020    7.2900 O.3     1  UNL1       -0.4726
     10 C         -28.9290   10.8340    6.6050 C.ar    1  UNL1        0.1401
     11 C         -29.0000   12.1040    6.0490 C.ar    1  UNL1        0.0370
     12 C         -27.8880   12.6280    5.3860 C.ar    1  UNL1        0.0047
     13 C         -26.7150   11.8850    5.2840 C.ar    1  UNL1        0.0193
     14 C         -26.6460   10.5990    5.8510 C.ar    1  UNL1        0.0842
     15 C         -27.7420   10.0860    6.5020 C.ar    1  UNL1        0.0530
     16 N         -25.6360    9.6470    5.9070 N.ar    1  UNL1       -0.2453
     17 C         -26.1180    8.5460    6.5990 C.ar    1  UNL1        0.0814
     18 C         -27.4160    8.8130    6.9670 C.ar    1  UNL1        0.0220
     19 C         -25.5350    7.3160    6.9450 C.ar    1  UNL1        0.0191
     20 C         -26.2680    6.3760    7.6570 C.ar    1  UNL1        0.0015
     21 C         -27.5820    6.6470    8.0290 C.ar    1  UNL1        0.0001
     22 C         -28.1570    7.8640    7.6860 C.ar    1  UNL1        0.0016
@<TRIPOS>BOND
     1     2     1    1
     2     3     2    1
     3     4     3    1
     4     5     4    1
     5     5     6    1
     6     7     5    1
     7     8     2    1
     8     9     8    1
     9    10     9    1
    10    11    10   ar
    11    12    11   ar
    12    13    12   ar
    13    14    13   ar
    14    15    10   ar
    15    15    14   ar
    16    16    14   ar
    17    17    16   ar
    18    18    15   ar
    19    18    17   ar
    20    19    17   ar
    21    20    19   ar
    22    21    20   ar
    23    22    21   ar
    24    22    18   ar
