@<TRIPOS>MOLECULE
4YXU_4JE_A305
 13 13 0 0 0
SMALL
GASTEIGER

@<TRIPOS>ATOM
      1 C          -2.4500    6.3780   13.9840 C.3     1  UNL1        0.0047
      2 C          -3.7390    2.2860   15.3770 C.ar    1  UNL1        0.0197
      3 C          -3.3920    5.4310   13.2720 C.3     1  UNL1        0.0264
      4 C          -5.3300    4.3570   14.4700 C.ar    1  UNL1       -0.0029
      5 C          -3.9790    4.3500   14.1500 C.ar    1  UNL1       -0.0221
      6 O          -5.2400    1.1570   17.9930 O.2     1  UNL1       -0.1503
      7 S          -5.7970    1.0200   16.6720 S.O2    1  UNL1        0.0935
      8 O          -7.2190    1.1190   16.5370 O.2     1  UNL1       -0.1503
      9 N          -5.3250   -0.3830   16.0720 N.3     1  UNL1        0.0392
     10 C          -5.0910    2.3060   15.6800 C.ar    1  UNL1        0.1250
     11 C          -3.1960    3.3070   14.6200 C.ar    1  UNL1       -0.0029
     12 C          -5.8920    3.3440   15.2260 C.ar    1  UNL1        0.0197
     13 C          -1.7900    7.3690   13.0550 C.3     1  UNL1        0.0004
@<TRIPOS>BOND
     1     3     1    1
     2     5     4   ar
     3     5     3    1
     4     7     6    2
     5     8     7    2
     6     7     9    1
     7    10     7    1
     8    10     2   ar
     9    11     5   ar
    10    11     2   ar
    11    12    10   ar
    12    12     4   ar
    13    13     1    1
