@<TRIPOS>MOLECULE
8QH8_V8I_A302
 15 15 0 0 0
SMALL
GASTEIGER

@<TRIPOS>ATOM
      1 C          -4.0000    2.5950   12.4190 C.2     1  UNL1        0.3886
      2 C          -4.5820    2.9930   13.7300 C.ar    1  UNL1        0.0917
      3 C          -4.9740    4.2930   14.0140 C.ar    1  UNL1        0.0649
      4 C          -5.5890    4.5790   15.2390 C.ar    1  UNL1        0.0243
      5 C          -5.8830    3.5400   16.1060 C.ar    1  UNL1        0.0772
      6 C          -5.5270    2.2240   15.8180 C.ar    1  UNL1        0.1358
      7 C          -4.8890    1.9750   14.6140 C.ar    1  UNL1        0.0283
      8 O          -4.6680    2.9110   11.4060 O.co2   1  UNL1       -0.2405
      9 O          -3.0890    1.7850   12.3850 O.co2   1  UNL1       -0.2405
     10 S          -5.9670    0.8710   16.8740 S.O2    1  UNL1        0.0943
     11 N          -5.4510   -0.4270   16.2280 N.3     1  UNL1        0.0392
     12 O          -5.3140    1.1300   18.1400 O.2     1  UNL1       -0.1503
     13 O          -7.3920    0.8850   16.8580 O.2     1  UNL1       -0.1503
     14 CL         -6.6730    3.9460   17.5860 Cl      1  UNL1       -0.0808
     15 CL         -4.6000    5.5810   13.0560 Cl      1  UNL1       -0.0820
@<TRIPOS>BOND
     1     2     1    1
     2     3     2   ar
     3     4     3   ar
     4     5     4   ar
     5     6     5   ar
     6     7     6   ar
     7     7     2   ar
     8     8     1   ar
     9     9     1   ar
    10    10     6    1
    11    10    11    1
    12    12    10    2
    13    13    10    2
    14    14     5    1
    15    15     3    1
