@<TRIPOS>MOLECULE
4MTY_SBW_A302
 21 22 0 0 0
SMALL
GASTEIGER

@<TRIPOS>ATOM
      1 O          -5.3450    1.0910   18.1030 O.2     1  UNL1       -0.1503
      2 S          -5.9020    0.9270   16.7730 S.O2    1  UNL1        0.0935
      3 O          -7.3190    1.0250   16.6380 O.2     1  UNL1       -0.1503
      4 N          -5.3730   -0.3770   16.0940 N.3     1  UNL1        0.0392
      5 C          -5.2970    2.2830   15.8430 C.ar    1  UNL1        0.1251
      6 C          -3.9410    2.3080   15.4770 C.ar    1  UNL1        0.0202
      7 C          -3.4300    3.4050   14.7650 C.ar    1  UNL1        0.0059
      8 C          -6.1070    3.3600   15.4800 C.ar    1  UNL1        0.0202
      9 C          -5.5870    4.4180   14.7580 C.ar    1  UNL1        0.0059
     10 C          -4.2560    4.4530   14.3850 C.ar    1  UNL1        0.0551
     11 C          -3.7360    5.6360   13.6150 C.2     1  UNL1        0.2651
     12 O          -4.5150    6.5920   13.3750 O.2     1  UNL1       -0.2684
     13 N          -2.5060    5.6390   13.2230 N.am    1  UNL1       -0.1968
     14 C          -1.8960    6.7130   12.4410 C.3     1  UNL1        0.1419
     15 C          -1.2440    7.7820   13.2810 C.ar    1  UNL1        0.0026
     16 C          -1.7040    8.1450   14.5260 C.ar    1  UNL1       -0.0023
     17 C          -1.1000    9.1350   15.2800 C.ar    1  UNL1        0.0030
     18 C          -0.0120    9.7580   14.7830 C.ar    1  UNL1        0.0420
     19 C           0.5270    9.3720   13.5740 C.ar    1  UNL1        0.1955
     20 O           1.6500   10.0100   13.1320 O.3     1  UNL1       -0.2866
     21 C          -0.0860    8.3650   12.8470 C.ar    1  UNL1        0.0395
@<TRIPOS>BOND
     1     2     1    2
     2     3     2    2
     3     2     4    1
     4     5     2    1
     5     6     5   ar
     6     7     6   ar
     7     8     5   ar
     8     9     8   ar
     9    10     9   ar
    10    10     7   ar
    11    11    10    1
    12    12    11    2
    13    13    11   am
    14    14    13    1
    15    15    14    1
    16    16    15   ar
    17    17    16   ar
    18    18    17   ar
    19    19    18   ar
    20    20    19    1
    21    21    19   ar
    22    21    15   ar
