@<TRIPOS>MOLECULE
6YZK_Q3N_A302
 21 30 0 0 0
SMALL
GASTEIGER

@<TRIPOS>ATOM
      1  O11       -7.0700    1.3370   16.3710 O.2   302  Q3N302      0.0000
      2  S8        -5.6620    0.9990   16.6360 S.O2  302  Q3N302      0.0000
      3  O5        -5.3090    1.1760   18.0710 O.2   302  Q3N302      0.0000
      4  N4        -5.3420   -0.4450   16.0980 N.3   302  Q3N302      0.0000
      5  C6        -4.5470    2.1100   15.7460 C.3   302  Q3N302      0.0000
      6  C2        -5.2140    2.7660   14.5320 C.3   302  Q3N302      0.0000
      7  C1        -4.5730    4.0910   14.0870 C.3   302  Q3N302      0.0000
      8  C9        -5.3960    5.3200   14.5400 C.3   302  Q3N302      0.0000
      9  C10       -5.4940    6.5670   13.6450 C.3   302  Q3N302      0.0000
     10  C7        -4.2260    7.4040   13.4340 C.3   302  Q3N302      0.0000
     11  B5        -3.9090    7.9690   11.9310 B     302  Q3N302      0.0000
     12  B6        -2.1480    8.0320   11.8350 B     302  Q3N302      0.0000
     13  B9        -1.5120    7.3900   13.3630 B     302  Q3N302      0.0000
     14  B4        -2.9260    6.6190   12.6290 B     302  Q3N302      0.0000
     15  B1        -2.0550    8.4550   14.7180 B     302  Q3N302      0.0000
     16  B10       -1.6110    9.1340   13.1010 B     302  Q3N302      0.0000
     17  C3        -2.8430    7.0290   14.3370 C.3   302  Q3N302      0.0000
     18  B7        -3.0970    9.5200   12.1810 B     302  Q3N302      0.0000
     19  B3        -4.4750    9.0700   13.2440 B     302  Q3N302      0.0000
     20  B8        -3.0440    9.7690   13.9930 B     302  Q3N302      0.0000
     21  B2        -3.7960    8.4220   14.8290 B     302  Q3N302      0.0000
@<TRIPOS>BOND
     1    12    11    1
     2    12    14    1
     3    12    16    1
     4    12    13    1
     5    11    18    1
     6    11    19    1
     7    11    10    1
     8    18    16    1
     9    18    19    1
    10    14    13    1
    11    16    13    1
    12    16    20    1
    13    19    10    1
    14    19    20    1
    15    13    17    1
    16    10     9    1
    17    10    17    1
    18     9     8    1
    19    20    15    1
    20    20    21    1
    21     7     6    1
    22     7     8    1
    23    17    15    1
    24    17    21    1
    25     6     5    1
    26    15    21    1
    27     5     2    1
    28     4     2    1
    29     1     2    2
    30     2     3    2
