@<TRIPOS>MOLECULE
6I1U_3W8_A307
 13 13 0 0 0
SMALL
GASTEIGER

@<TRIPOS>ATOM
      1 C          -2.5450    7.2610   12.8340 C.3     1  UNL1        0.0512
      2 C          -2.6780    5.9300   13.5050 C.3     1  UNL1        0.2055
      3 O          -4.0300    5.8030   13.9610 O.3     1  UNL1       -0.4755
      4 C          -4.3900    4.6480   14.6110 C.ar    1  UNL1        0.1386
      5 C          -5.7050    4.5690   15.0300 C.ar    1  UNL1        0.0383
      6 C          -6.1730    3.4370   15.6730 C.ar    1  UNL1        0.0231
      7 C          -5.3170    2.3720   15.8950 C.ar    1  UNL1        0.1252
      8 S          -5.9180    0.9680   16.7880 S.O2    1  UNL1        0.0935
      9 O          -5.3750    1.0880   18.1040 O.2     1  UNL1       -0.1503
     10 O          -7.3550    1.0100   16.6690 O.2     1  UNL1       -0.1503
     11 N          -5.3550   -0.3520   16.0800 N.3     1  UNL1        0.0392
     12 C          -3.9800    2.4590   15.5160 C.ar    1  UNL1        0.0231
     13 C          -3.5230    3.6020   14.8670 C.ar    1  UNL1        0.0383
@<TRIPOS>BOND
     1     2     1    1
     2     3     2    1
     3     4     3    1
     4     5     4   ar
     5     6     5   ar
     6     7     6   ar
     7     8     7    1
     8     9     8    2
     9    10     8    2
    10     8    11    1
    11    12     7   ar
    12    13    12   ar
    13    13     4   ar
