@<TRIPOS>MOLECULE
5JGS_EVF_B301
 19 20 0 0 0
SMALL
GASTEIGER

@<TRIPOS>ATOM
      1 N          -5.2940   -0.3680   16.1120 N.3     1  UNL1       -0.2016
      2 S          -5.9030    0.8800   16.8700 S.O2    1  UNL1        0.0798
      3 O          -5.4890    0.8640   18.2640 O.2     1  UNL1       -0.1512
      4 S          -6.0750    3.7870   16.2040 S.2     1  UNL1       -0.0473
      5 C          -5.1480    2.3080   16.2690 C.ar    1  UNL1        0.2332
      6 O          -7.2930    1.0090   16.6300 O.2     1  UNL1       -0.1512
      7 N          -3.8730    2.4480   16.0690 N.ar    1  UNL1       -0.2206
      8 C          -2.2550    4.2150   15.4100 C.ar    1  UNL1       -0.0351
      9 C          -2.0710    5.5310   15.1070 C.ar    1  UNL1       -0.0597
     10 C          -3.1620    6.4130   15.1380 C.ar    1  UNL1       -0.0606
     11 C          -4.4190    5.9490   15.4660 C.ar    1  UNL1       -0.0458
     12 C          -4.6440    4.6400   15.7760 C.ar    1  UNL1        0.0408
     13 C          -3.5000    3.7030   15.7380 C.ar    1  UNL1        0.0804
     14 H          -4.6480   -0.8700   16.3770 H       1  UNL1        0.1443
     15 H          -5.5470   -0.6470   15.3390 H       1  UNL1        0.1443
     16 H          -1.5400    3.6200   15.3960 H       1  UNL1        0.0639
     17 H          -1.2390    5.8710   14.8690 H       1  UNL1        0.0618
     18 H          -3.0440    7.3090   14.9130 H       1  UNL1        0.0618
     19 H          -5.1430    6.5320   15.4720 H       1  UNL1        0.0629
@<TRIPOS>BOND
     1     2     1    1
     2     3     2    2
     3     5     4   ar
     4     5     2    1
     5     6     2    2
     6     7     5   ar
     7     9     8   ar
     8    10     9   ar
     9    11    10   ar
    10    12     4   ar
    11    12    11   ar
    12    13    12   ar
    13    13     8   ar
    14    13     7   ar
    15    14     1    1
    16    15     1    1
    17    16     8    1
    18    17     9    1
    19    18    10    1
    20    19    11    1
