@<TRIPOS>MOLECULE
6HR3_4JE_A305
 13 13 0 0 0
SMALL
GASTEIGER

@<TRIPOS>ATOM
      1 C          -2.5530    6.4620   14.0920 C.3     1  UNL1        0.0047
      2 C          -6.0440    3.3820   15.4090 C.ar    1  UNL1        0.0197
      3 C          -3.6630    5.6250   13.4970 C.3     1  UNL1        0.0264
      4 C          -3.3620    3.4280   14.7220 C.ar    1  UNL1       -0.0029
      5 C          -4.1840    4.4870   14.3440 C.ar    1  UNL1       -0.0221
      6 O          -7.2930    1.0780   16.6310 O.2     1  UNL1       -0.1503
      7 S          -5.8690    0.9950   16.7570 S.O2    1  UNL1        0.0935
      8 O          -5.2940    1.1620   18.0770 O.2     1  UNL1       -0.1503
      9 N          -5.3550   -0.3550   16.1230 N.3     1  UNL1        0.0392
     10 C          -5.2180    2.3250   15.7780 C.ar    1  UNL1        0.1250
     11 C          -5.5180    4.4550   14.7100 C.ar    1  UNL1       -0.0029
     12 C          -3.8700    2.3520   15.4390 C.ar    1  UNL1        0.0197
     13 C          -2.0990    7.5690   13.1570 C.3     1  UNL1        0.0004
@<TRIPOS>BOND
     1     3     1    1
     2     5     4   ar
     3     5     3    1
     4     7     6    2
     5     8     7    2
     6     7     9    1
     7    10     2   ar
     8    10     7    1
     9    11     2   ar
    10    11     5   ar
    11    12    10   ar
    12    12     4   ar
    13    13     1    1
