@<TRIPOS>MOLECULE
6YZQ_Q3Q_A302
 20 30 0 0 0
SMALL
GASTEIGER

@<TRIPOS>ATOM
      1  C1        -5.4120    3.3950   13.7620 C.3   302  Q3Q302      0.0000
      2  C6        -4.5200    2.2110   15.7970 C.3   302  Q3Q302      0.0000
      3  O9        -6.9940    1.3670   16.3010 O.2   302  Q3Q302      0.0000
      4  C3        -4.4230    7.3980   14.2540 C.3   302  Q3Q302      0.0000
      5  S8        -5.5770    0.9780   16.6360 S.O2  302  Q3Q302      0.0000
      6  O5        -5.2770    1.0810   18.0770 O.2   302  Q3Q302      0.0000
      7  N1        -5.1640   -0.4320   15.9990 N.3   302  Q3Q302      0.0000
      8  C2        -4.6660    2.1490   14.2850 C.3   302  Q3Q302      0.0000
      9  C4        -4.5930    4.6930   13.9040 C.3   302  Q3Q302      0.0000
     10  C7        -5.1880    6.0570   13.5500 C.3   302  Q3Q302      0.0000
     11  B15       -5.6950    6.2700   12.0070 B     302  Q3Q302      0.0000
     12  B16       -5.2870    7.9520   11.6500 B     302  Q3Q302      0.0000
     13  B19       -4.4540    8.6070   13.0760 B     302  Q3Q302      0.0000
     14  B14       -4.1030    6.9470   12.5780 B     302  Q3Q302      0.0000
     15  B10       -5.5860    8.5810   14.4810 B     302  Q3Q302      0.0000
     16  B11       -6.1660    8.9410   12.8060 B     302  Q3Q302      0.0000
     17  B17       -6.9630    7.4950   12.1100 B     302  Q3Q302      0.0000
     18  B13       -6.8810    6.2150   13.3610 B     302  Q3Q302      0.0000
     19  B18       -7.1350    7.8770   13.8890 B     302  Q3Q302      0.0000
     20  B12       -6.0240    6.9200   14.8280 B     302  Q3Q302      0.0000
@<TRIPOS>BOND
     1    12    11    1
     2    12    17    1
     3    12    16    1
     4    12    13    1
     5    11    17    1
     6    11    18    1
     7    11    10    1
     8    17    16    1
     9    17    18    1
    10    14    13    1
    11    14    10    1
    12    14     4    1
    13    16    13    1
    14    16    19    1
    15    13     4    1
    16    18    19    1
    17    18    20    1
    18    10     9    1
    19    10     4    1
    20     1     9    1
    21     1     8    1
    22    19    15    1
    23    19    20    1
    24     4    15    1
    25     8     2    1
    26    15    20    1
    27     2     5    1
    28     7     5    1
    29     3     5    2
    30     5     6    2
