@<TRIPOS>MOLECULE
5LLC_V26_A308
 26 27 0 0 0
SMALL
GASTEIGER

@<TRIPOS>ATOM
      1 O          -3.3150    6.5910   12.7950 O.2     1  UNL1       -0.1685
      2 S          -2.4780    5.7090   13.6420 S.O2    1  UNL1        0.0125
      3 O          -1.7160    6.4000   14.6720 O.2     1  UNL1       -0.1685
      4 C          -3.5010    4.4910   14.4290 C.ar    1  UNL1        0.1522
      5 C          -2.8370    3.5490   15.2310 C.ar    1  UNL1        0.1871
      6 F          -1.5260    3.6140   15.4080 F       1  UNL1       -0.2003
      7 C          -3.5510    2.5000   15.8240 C.ar    1  UNL1        0.1895
      8 F          -2.8500    1.5830   16.5080 F       1  UNL1       -0.2003
      9 C          -4.8980    4.3770   14.2510 C.ar    1  UNL1        0.1135
     10 N          -5.6170    5.2610   13.4750 N.pl3   1  UNL1       -0.2321
     11 C          -6.7390    4.8400   12.6260 C.3     1  UNL1        0.1356
     12 C          -5.5550    3.3460   14.9720 C.ar    1  UNL1        0.1770
     13 F          -6.8800    3.3780   14.9070 F       1  UNL1       -0.2013
     14 C          -4.9500    2.3850   15.7600 C.ar    1  UNL1        0.1832
     15 S          -5.7470    1.0780   16.6890 S.O2    1  UNL1        0.0980
     16 O          -5.2120    1.3030   18.0250 O.2     1  UNL1       -0.1502
     17 N          -5.2980   -0.3150   16.0950 N.3     1  UNL1        0.0394
     18 O          -7.1550    1.2520   16.4770 O.2     1  UNL1       -0.1502
     19 C          -1.3490    4.8050   12.6150 C.3     1  UNL1        0.1607
     20 C          -1.9700    4.2730   11.3270 C.3     1  UNL1        0.0521
     21 C          -2.8800    3.1190   11.4600 C.ar    1  UNL1       -0.0204
     22 C          -2.7490    2.0610   12.4010 C.ar    1  UNL1       -0.0042
     23 C          -3.6370    1.0380   12.5160 C.ar    1  UNL1       -0.0003
     24 C          -4.7120    1.0160   11.6050 C.ar    1  UNL1       -0.0000
     25 C          -4.8930    2.1120   10.7470 C.ar    1  UNL1       -0.0003
     26 C          -4.0260    3.1760   10.7180 C.ar    1  UNL1       -0.0042
@<TRIPOS>BOND
     1     2     1    2
     2     3     2    2
     3     4     2    1
     4     5     4   ar
     5     6     5    1
     6     7     5   ar
     7     8     7    1
     8     9     4   ar
     9    10     9    1
    10    11    10    1
    11    12     9   ar
    12    13    12    1
    13    14    12   ar
    14    14     7   ar
    15    15    14    1
    16    16    15    2
    17    15    17    1
    18    18    15    2
    19     2    19    1
    20    20    19    1
    21    21    20    1
    22    22    21   ar
    23    23    22   ar
    24    24    23   ar
    25    25    24   ar
    26    26    25   ar
    27    26    21   ar
