@<TRIPOS>MOLECULE
4FVO_0VV_A303
 15 16 0 0 0
SMALL
GASTEIGER

@<TRIPOS>ATOM
      1 C          -2.8180    6.7100   12.5480 C.ar    1  UNL1       -0.0000
      2 C          -1.6980    6.0580   12.9660 C.ar    1  UNL1        0.0028
      3 C          -1.6920    4.9520   13.8340 C.ar    1  UNL1        0.0345
      4 C          -5.4530    4.8490   14.4640 C.3     1  UNL1        0.2364
      5 C          -4.2740    2.8620   15.4100 C.cat   1  UNL1        0.4654
      6 C          -2.9450    4.5210   14.3040 C.ar    1  UNL1        0.1475
      7 C          -4.1490    5.1970   13.8840 C.ar    1  UNL1        0.0503
      8 C          -4.0330    6.2430   12.9600 C.ar    1  UNL1        0.0017
      9 N          -3.0710    3.4020   15.0510 N.pl3   1  UNL1       -0.0363
     10 N          -5.4330    3.4770   15.0480 N.pl3   1  UNL1       -0.0566
     11 N          -4.1660    1.7720   16.2350 N.2     1  UNL1        0.0778
     12 S          -5.4520    0.9270   16.6530 S.O2    1  UNL1        0.2281
     13 N          -5.2100   -0.4790   16.0160 N.3     1  UNL1        0.0732
     14 O          -6.7120    1.4380   16.1990 O.2     1  UNL1       -0.1174
     15 O          -5.3350    0.8550   18.1040 O.2     1  UNL1       -0.1174
@<TRIPOS>BOND
     1     2     1   ar
     2     3     2   ar
     3     6     3   ar
     4     7     4    1
     5     7     6   ar
     6     8     7   ar
     7     8     1   ar
     8     9     6    1
     9     9     5    1
    10    10     4    1
    11    10     5    1
    12    11     5    2
    13    12    11    1
    14    12    13    1
    15    14    12    2
    16    15    12    2
