@<TRIPOS>MOLECULE
6KE5_6UB_B1301
 28 29 0 0 0
SMALL
GASTEIGER

@<TRIPOS>ATOM
      1 C          27.8190  158.9020   11.5770 C.3     1  UNL1        0.0513
      2 C          26.7950  160.0270   11.4470 C.3     1  UNL1        0.2089
      3 O          26.7610  160.7130   12.6710 O.3     1  UNL1       -0.4456
      4 C          27.1500  162.0540   12.7290 C.2     1  UNL1        0.3388
      5 O          27.9780  162.4950   12.0060 O.2     1  UNL1       -0.2452
      6 C          26.4820  162.9680   13.7590 C.2     1  UNL1        0.0750
      7 C          26.2190  162.5210   14.9910 C.2     1  UNL1        0.0804
      8 N          25.4000  163.3170   16.0000 N.pl3   1  UNL1       -0.2188
      9 C          24.9780  164.6360   15.5170 C.2     1  UNL1        0.0511
     10 C          25.4800  165.1830   14.4110 C.2     1  UNL1        0.0726
     11 C          26.0280  164.3420   13.3200 C.3     1  UNL1        0.0822
     12 C          25.3300  164.4870   11.9270 C.ar    1  UNL1       -0.0032
     13 C          24.1210  163.9760   11.5530 C.ar    1  UNL1       -0.0028
     14 C          23.7030  164.2060   10.2640 C.ar    1  UNL1       -0.0002
     15 C          24.4740  164.9430    9.3850 C.ar    1  UNL1        0.0008
     16 C          25.6840  165.4540    9.7810 C.ar    1  UNL1        0.0111
     17 C          26.1030  165.2130   11.0550 C.ar    1  UNL1        0.0543
     18 CL         27.6430  165.8090   11.7330 Cl      1  UNL1       -0.0826
     19 C          25.1050  166.6550   13.8860 C.2     1  UNL1        0.3389
     20 O          24.2540  166.8230   13.1330 O.2     1  UNL1       -0.2452
     21 O          25.9040  167.7120   14.3450 O.3     1  UNL1       -0.4415
     22 C          27.0130  167.3840   15.1380 C.3     1  UNL1        0.2559
     23 C          24.4400  165.5300   16.6520 C.3     1  UNL1        0.0491
     24 C          26.5580  161.2120   15.4020 C.3     1  UNL1        0.1848
     25 O          27.8400  161.4750   16.0340 O.3     1  UNL1       -0.3460
     26 C          27.7660  162.2930   17.1730 C.3     1  UNL1        0.1631
     27 C          29.0830  163.1100   17.2630 C.3     1  UNL1        0.1413
     28 N          28.8240  164.2770   18.0830 N.3     1  UNL1       -0.1286
@<TRIPOS>BOND
     1     2     1    1
     2     3     2    1
     3     4     3    1
     4     5     4    2
     5     6     4    1
     6     7     6    2
     7     8     7    1
     8     9     8    1
     9    10     9    2
    10    11     6    1
    11    11    10    1
    12    11    12    1
    13    13    12   ar
    14    14    13   ar
    15    15    14   ar
    16    16    15   ar
    17    17    16   ar
    18    17    12   ar
    19    18    17    1
    20    19    10    1
    21    20    19    2
    22    21    19    1
    23    22    21    1
    24    23     9    1
    25    24     7    1
    26    25    24    1
    27    26    25    1
    28    27    26    1
    29    28    27    1
