@<TRIPOS>MOLECULE
4FKU_60K_A303
 37 39 0 0 0
SMALL
GASTEIGER

@<TRIPOS>ATOM
      1  S          2.4630  -27.8160  -24.9480 S.O2  303  60K303      0.0559
      2  C1         3.6720  -26.5530  -24.7500 C.ar  303  60K303      0.1051
      3  N1         1.1860  -27.4520  -24.0400 N.3   303  60K303     -0.2035
      4  O1         2.0260  -27.8180  -26.3130 O.2   303  60K303     -0.1533
      5  C2         4.7000  -26.4820  -25.6680 C.ar  303  60K303     -0.0336
      6  N2         6.8210  -23.9180  -24.1760 N.pl3 303  60K303     -0.2371
      7  O2         3.0220  -29.0210  -24.4550 O.2   303  60K303     -0.1533
      8  C3         5.7440  -25.6120  -25.4540 C.ar  303  60K303     -0.0373
      9  N3         6.8150  -22.9740  -23.1680 N.2   303  60K303     -0.1767
     10  O3         9.4080  -23.1860  -24.6820 O.2   303  60K303     -0.2681
     11  C4         5.7750  -24.8150  -24.3210 C.ar  303  60K303      0.0484
     12  N4        10.0740  -21.6130  -23.1010 N.am  303  60K303     -0.2796
     13  O4         7.4700  -18.1910  -18.3690 O.2   303  60K303     -0.2451
     14  C5         7.8980  -22.3020  -22.9830 C.2   303  60K303      0.1524
     15  O5         5.7880  -19.4910  -19.0350 O.3   303  60K303     -0.4771
     16  C6         9.1940  -22.4470  -23.7170 C.2   303  60K303      0.2688
     17  C7         9.4700  -20.9060  -22.0580 C.ar  303  60K303      0.0432
     18  C8        10.0260  -19.9740  -21.1910 C.ar  303  60K303     -0.0390
     19  C9         9.2030  -19.3830  -20.2470 C.ar  303  60K303     -0.0460
     20  C10        7.8530  -19.7170  -20.1450 C.ar  303  60K303      0.0596
     21  C11        7.0020  -19.0760  -19.0930 C.2   303  60K303      0.3368
     22  C12        7.3110  -20.6780  -21.0010 C.ar  303  60K303     -0.0366
     23  C13        8.1170  -21.2830  -21.9660 C.ar  303  60K303      0.0290
     24  C14        4.7250  -24.8760  -23.4150 C.ar  303  60K303     -0.0373
     25  C15        3.6620  -25.7290  -23.6380 C.ar  303  60K303     -0.0336
     26  HN4       11.0530  -21.5110  -23.3460 H     303  60K303      0.1552
     27  HN1        0.7380  -26.5430  -23.9850 H     303  60K303      0.1442
     28 HN1A        0.6990  -28.1100  -23.4380 H     303  60K303      0.1442
     29  H2         4.6840  -27.0870  -26.5730 H     303  60K303      0.0638
     30  H3         6.4950  -25.5120  -26.2350 H     303  60K303      0.0637
     31  HN2        7.5750  -24.0260  -24.8460 H     303  60K303      0.1744
     32  H8        11.0960  -19.7780  -21.1960 H     303  60K303      0.0636
     33  H9         9.6370  -18.6400  -19.5790 H     303  60K303      0.0626
     34  HO5        5.2380  -19.0570  -18.3310 H     303  60K303      0.2954
     35  H12        6.2690  -20.9920  -21.0060 H     303  60K303      0.0633
     36  H14        4.6980  -24.2760  -22.5060 H     303  60K303      0.0637
     37  H15        2.8100  -25.7170  -22.9610 H     303  60K303      0.0638
@<TRIPOS>BOND
     1    29     5    1
     2     4     1    2
     3    30     8    1
     4     5     8   ar
     5     5     2   ar
     6     8    11   ar
     7     1     2    1
     8     1     7    2
     9     1     3    1
    10    31     6    1
    11     2    25   ar
    12    10    16    2
    13    11     6    1
    14    11    24   ar
    15     6     9    1
    16     3    27    1
    17     3    28    1
    18    16    12   am
    19    16    14    1
    20    25    24   ar
    21    25    37    1
    22    24    36    1
    23    26    12    1
    24     9    14    2
    25    12    17    1
    26    14    23    1
    27    17    23   ar
    28    17    18   ar
    29    23    22   ar
    30    32    18    1
    31    18    19   ar
    32    35    22    1
    33    22    20   ar
    34    19    20   ar
    35    19    33    1
    36    20    21    1
    37    21    15    1
    38    21    13    2
    39    15    34    1
