@<TRIPOS>MOLECULE
9JJ5_A1EB0_A301
 63 66 0 0 0
SMALL
GASTEIGER

@<TRIPOS>ATOM
      1  C10        7.9190  -20.5590  -21.0740 C.2   301  A1E301      0.2539
      2  C13        5.5710  -20.9800  -20.0570 C.ar  301  A1E301      0.1459
      3  C15        4.3120  -18.9370  -18.9770 C.ar  301  A1E301     -0.0485
      4  C17        6.6660  -18.5780  -20.0110 C.ar  301  A1E301      0.1383
      5  C20        5.8040  -25.2030  -25.6020 C.3   301  A1E301      0.0234
      6  C21        5.5910  -26.3250  -24.5770 C.3   301  A1E301     -0.0360
      7  C22        4.6240  -27.3630  -25.1100 C.3   301  A1E301     -0.0645
      8  C24        4.8930  -26.5730  -27.5400 C.3   301  A1E301     -0.0645
      9  C26        3.1680  -21.1910  -18.9710 C.ar  301  A1E301     -0.0151
     10  C28        1.5120  -21.9150  -17.1020 C.ar  301  A1E301     -0.0491
     11  C02        8.4680  -22.8750  -23.9660 C.ar  301  A1E301      0.1679
     12  C03        8.6960  -21.9670  -22.9810 C.ar  301  A1E301      0.0838
     13  C04       10.0260  -21.7030  -22.9290 C.ar  301  A1E301      0.0443
     14  C06        7.1030  -23.4320  -24.3300 C.2   301  A1E301      0.2662
     15  C12        6.7050  -20.0440  -20.3600 C.ar  301  A1E301      0.1078
     16  C14        4.3840  -20.4100  -19.3450 C.ar  301  A1E301      0.0183
     17  C16        5.4620  -18.0010  -19.2990 C.ar  301  A1E301     -0.0249
     18  C23        3.9570  -26.9540  -26.4090 C.3   301  A1E301     -0.0835
     19  C25        5.9830  -25.6340  -27.0550 C.3   301  A1E301     -0.0360
     20  C27        2.7720  -21.1880  -17.5000 C.ar  301  A1E301     -0.0532
     21  C29        0.7000  -22.6040  -18.1880 C.ar  301  A1E301      0.0367
     22  C30        1.1060  -22.5920  -19.6490 C.ar  301  A1E301     -0.0491
     23  C31        2.3620  -21.8640  -20.0560 C.ar  301  A1E301     -0.0532
     24  C32       -0.5690  -23.3250  -17.8120 C.2   301  A1E301      0.2438
     25  C36       -2.6910  -24.4390  -18.6340 C.3   301  A1E301      0.0004
     26  F18        5.6270  -22.2850  -20.4020 F     301  A1E301     -0.2040
     27  F19        7.7460  -17.8270  -20.3240 F     301  A1E301     -0.2046
     28  N01        9.6380  -23.1930  -24.5070 N.ar  301  A1E301     -0.1673
     29  N05       10.6110  -22.4510  -23.8700 N.ar  301  A1E301     -0.2822
     30  N07        7.0530  -24.5690  -25.2030 N.am  301  A1E301     -0.3071
     31  N09        7.6400  -21.4090  -22.1880 N.am  301  A1E301     -0.2782
     32  N33       -1.4340  -23.7530  -18.8860 N.am  301  A1E301     -0.3144
     33  N35        3.1880  -28.1290  -26.8050 N.4   301  A1E301      0.3800
     34  O08        6.1080  -22.9450  -23.8970 O.2   301  A1E301     -0.2684
     35  O11        9.0180  -20.2620  -20.7550 O.2   301  A1E301     -0.2697
     36  O34       -0.8380  -23.4580  -16.6630 O.2   301  A1E301     -0.2702
     37 H151        3.5550  -18.6070  -18.5500 H     301  A1E301      0.0625
     38 H201        5.0220  -24.6290  -25.5810 H     301  A1E301      0.0498
     39 H211        6.4410  -26.7500  -24.3880 H     301  A1E301      0.0282
     40 H212        5.2330  -25.9470  -23.7590 H     301  A1E301      0.0282
     41 H222        3.9360  -27.5140  -24.4440 H     301  A1E301      0.0250
     42 H221        5.1110  -28.1880  -25.2600 H     301  A1E301      0.0250
     43 H241        4.3840  -26.1340  -28.2390 H     301  A1E301      0.0250
     44 H242        5.3020  -27.3760  -27.8980 H     301  A1E301      0.0250
     45 H281        1.2370  -21.9410  -16.2140 H     301  A1E301      0.0625
     46 H041       10.4510  -21.1120  -22.3500 H     301  A1E301      0.0843
     47 H161        5.4280  -17.1010  -19.0670 H     301  A1E301      0.0647
     48 H231        3.4120  -26.1660  -26.2590 H     301  A1E301      0.0085
     49 H252        6.8380  -26.0840  -27.1400 H     301  A1E301      0.0282
     50 H251        5.9810  -24.8420  -27.6140 H     301  A1E301      0.0282
     51 H271        3.2940  -20.7520  -16.8650 H     301  A1E301      0.0624
     52 H301        0.5870  -23.0280  -20.2860 H     301  A1E301      0.0625
     53 H311        2.6300  -21.8300  -20.9450 H     301  A1E301      0.0624
     54 H363       -3.3540  -24.1470  -19.2790 H     301  A1E301      0.0426
     55 H362       -2.9980  -24.2330  -17.7370 H     301  A1E301      0.0426
     56 H361       -2.5590  -25.3960  -18.7180 H     301  A1E301      0.0426
     57 H051       11.4530  -22.4670  -24.0470 H     301  A1E301      0.1883
     58 H071        7.7920  -24.8900  -25.5060 H     301  A1E301      0.1493
     59 H091        6.8230  -21.5900  -22.3860 H     301  A1E301      0.1552
     60 H331       -1.1980  -23.5970  -19.6990 H     301  A1E301      0.1487
     61 H351        3.6920  -28.6530  -27.3190 H     301  A1E301     -0.0897
     62 H353        2.4670  -27.8720  -27.2610 H     301  A1E301     -0.0897
     63 H352        2.9370  -28.5780  -26.0790 H     301  A1E301     -0.0897
@<TRIPOS>BOND
     1    43     8    1
     2    44     8    1
     3    50    19    1
     4     8    19    1
     5     8    18    1
     6    61    33    1
     7    62    33    1
     8    49    19    1
     9    19     5    1
    10    33    18    1
    11    33    63    1
    12    18    48    1
    13    18     7    1
    14     5    38    1
    15     5    30    1
    16     5     6    1
    17    58    30    1
    18    42     7    1
    19    30    14   am
    20     7     6    1
    21     7    41    1
    22     6    39    1
    23     6    40    1
    24    28    11   ar
    25    28    29   ar
    26    14    11    1
    27    14    34    2
    28    57    29    1
    29    11    12   ar
    30    29    13   ar
    31    12    13   ar
    32    12    31    1
    33    13    46    1
    34    59    31    1
    35    31     1   am
    36     1    35    2
    37     1    15    1
    38    53    23    1
    39    26     2    1
    40    15     2   ar
    41    15     4   ar
    42    27     4    1
    43    52    22    1
    44     2    16   ar
    45    23    22   ar
    46    23     9   ar
    47     4    17   ar
    48    60    32    1
    49    22    21   ar
    50    16     3   ar
    51    16     9    1
    52    17    47    1
    53    17     3   ar
    54    54    25    1
    55     3    37    1
    56     9    20   ar
    57    32    25    1
    58    32    24   am
    59    56    25    1
    60    25    55    1
    61    21    24    1
    62    21    10   ar
    63    24    36    2
    64    20    10   ar
    65    20    51    1
    66    10    45    1
