@<TRIPOS>MOLECULE
2R3R_6SC_A501
 24 27 0 0 0
SMALL
GASTEIGER

@<TRIPOS>ATOM
      1 C           8.9660  -21.6510  -22.7540 C.ar    1  UNL1        0.0912
      2 C           7.6620  -22.2040  -22.8610 C.ar    1  UNL1        0.1729
      3 N           7.8160  -23.2580  -23.8030 N.ar    1  UNL1       -0.1966
      4 N           9.0700  -23.3450  -24.2890 N.ar    1  UNL1       -0.1604
      5 C           9.7820  -22.4490  -23.6530 C.ar    1  UNL1        0.1303
      6 N           6.4530  -21.9300  -22.2390 N.ar    1  UNL1       -0.2259
      7 C           5.4290  -22.7540  -22.5500 C.ar    1  UNL1        0.0858
      8 C           5.5380  -23.8420  -23.4590 C.ar    1  UNL1        0.0550
      9 C           6.7710  -24.1170  -24.0680 C.ar    1  UNL1        0.1524
     10 N           6.9760  -25.1340  -24.9490 N.pl3   1  UNL1       -0.2153
     11 C           4.0890  -22.5010  -21.9620 C.ar    1  UNL1        0.0178
     12 C           5.9680  -26.1580  -25.0440 C.3     1  UNL1        0.1403
     13 C           5.1160  -26.0160  -26.2410 C.ar    1  UNL1        0.0025
     14 C           5.6920  -25.9400  -27.4860 C.ar    1  UNL1        0.0181
     15 C           4.8650  -25.8420  -28.6180 C.ar    1  UNL1        0.0986
     16 N           3.5200  -25.7700  -28.5410 N.ar    1  UNL1       -0.2423
     17 C           2.9770  -25.8270  -27.3190 C.ar    1  UNL1        0.0986
     18 C           3.7250  -25.9630  -26.1360 C.ar    1  UNL1        0.0181
     19 C           3.7730  -21.2380  -21.4640 C.ar    1  UNL1        0.0015
     20 C           2.5210  -21.0020  -20.8910 C.ar    1  UNL1        0.0000
     21 C           1.5590  -21.9990  -20.8690 C.ar    1  UNL1        0.0000
     22 C           1.8500  -23.2750  -21.3850 C.ar    1  UNL1        0.0000
     23 C           3.1180  -23.5270  -21.9400 C.ar    1  UNL1        0.0015
     24 BR          9.5290  -20.2360  -21.7600 Br      1  UNL1       -0.0441
@<TRIPOS>BOND
     1     2     1   ar
     2     3     2   ar
     3     4     3   ar
     4     5     4   ar
     5     5     1   ar
     6     6     2   ar
     7     7     6   ar
     8     8     7   ar
     9     9     8   ar
    10     9     3   ar
    11    10     9    1
    12    11     7    1
    13    12    10    1
    14    13    12    1
    15    14    13   ar
    16    15    14   ar
    17    16    15   ar
    18    17    16   ar
    19    18    17   ar
    20    18    13   ar
    21    19    11   ar
    22    20    19   ar
    23    21    20   ar
    24    22    21   ar
    25    23    11   ar
    26    23    22   ar
    27    24     1    1
