@<TRIPOS>MOLECULE
4GCJ_X64_A305
 28 30 0 0 0
SMALL
GASTEIGER

@<TRIPOS>ATOM
      1 N           9.0950  -22.9750  -23.8780 N.ar    1  UNL1       -0.2042
      2 N           7.2900  -24.0470  -24.8160 N.pl3   1  UNL1       -0.1885
      3 N          10.6200  -21.7230  -22.6260 N.pl3   1  UNL1       -0.1065
      4 N           1.1400  -26.7510  -23.9960 N.3     1  UNL1        0.0392
      5 N           7.2590  -18.2930  -20.2770 N.pl3   1  UNL1        0.0810
      6 C           8.3310  -21.6970  -22.0500 C.ar    1  UNL1        0.1059
      7 C           9.4080  -22.1070  -22.8430 C.ar    1  UNL1        0.1807
      8 C           7.7920  -23.2330  -23.9010 C.ar    1  UNL1        0.1848
      9 C           6.1580  -24.7730  -24.7780 C.ar    1  UNL1        0.0727
     10 C           8.3980  -20.8670  -20.9280 C.2     1  UNL1        0.2103
     11 C           7.2920  -20.6840  -20.0690 C.ar    1  UNL1        0.1088
     12 C           6.7670  -19.3720  -19.7720 C.ar    1  UNL1        0.2930
     13 C           5.6760  -19.2540  -18.8830 C.ar    1  UNL1        0.0754
     14 C           5.0960  -20.3930  -18.2900 C.ar    1  UNL1        0.0063
     15 C           5.5920  -21.6730  -18.5740 C.ar    1  UNL1        0.0005
     16 C           6.6860  -21.8220  -19.4540 C.ar    1  UNL1        0.0094
     17 C           5.3380  -24.9230  -23.6230 C.ar    1  UNL1        0.0179
     18 C           4.1760  -25.7180  -23.6530 C.ar    1  UNL1        0.0213
     19 C           3.8140  -26.3870  -24.8430 C.ar    1  UNL1        0.1251
     20 C           4.6070  -26.2550  -26.0020 C.ar    1  UNL1        0.0213
     21 C           5.7730  -25.4510  -25.9700 C.ar    1  UNL1        0.0179
     22 O           9.4780  -20.3590  -20.5850 O.2     1  UNL1       -0.2857
     23 O           2.7860  -28.6420  -24.2060 O.2     1  UNL1       -0.1503
     24 O           1.9670  -27.6760  -26.2230 O.2     1  UNL1       -0.1503
     25 O           7.2820  -17.2070  -19.5550 O.2     1  UNL1        0.0415
     26 O           7.7410  -18.2620  -21.4940 O.co2   1  UNL1       -0.5760
     27 S           6.8750  -22.4200  -22.6870 S.2     1  UNL1       -0.0451
     28 S           2.3820  -27.4240  -24.8610 S.O2    1  UNL1        0.0935
@<TRIPOS>UNITY_ATOM_ATTR
5 1
charge 1
26 1
charge -1
@<TRIPOS>BOND
     1     7     1   ar
     2     7     6   ar
     3     7     3    1
     4     8     2    1
     5     8     1   ar
     6     9     2    1
     7    10     6    1
     8    11    10    1
     9    12    11   ar
    10    12     5    1
    11    13    12   ar
    12    14    13   ar
    13    15    14   ar
    14    16    15   ar
    15    16    11   ar
    16    17     9   ar
    17    18    17   ar
    18    19    18   ar
    19    20    19   ar
    20    21    20   ar
    21    21     9   ar
    22    22    10    2
    23    25     5    2
    24    26     5    1
    25    27     8   ar
    26    27     6   ar
    27    28    24    2
    28    28    23    2
    29    28    19    1
    30    28     4    1
