@<TRIPOS>MOLECULE
8ERD_WQ6_A301
 29 32 0 0 0
SMALL
GASTEIGER

@<TRIPOS>ATOM
      1 C           3.0570  -19.7950  -18.4710 C.3     1  UNL1        0.0232
      2 C           4.2890  -18.8900  -18.7240 C.3     1  UNL1        0.0937
      3 C           9.4530  -20.5400  -21.7210 C.ar    1  UNL1        0.0032
      4 C           6.3020  -19.2140  -20.0760 C.2     1  UNL1        0.2490
      5 C           7.2510  -19.9680  -20.9320 C.ar    1  UNL1        0.0551
      6 C           8.6530  -19.8120  -20.8900 C.ar    1  UNL1        0.0047
      7 C           8.8790  -21.4620  -22.6200 C.ar    1  UNL1        0.0370
      8 C           9.6830  -22.2390  -23.4850 C.ar    1  UNL1        0.1033
      9 C           3.6750  -21.1920  -18.3250 C.3     1  UNL1        0.0216
     10 C           5.9540  -21.8490  -18.8530 C.3     1  UNL1        0.0215
     11 C           7.7840  -23.2420  -24.3490 C.ar    1  UNL1        0.2365
     12 C           7.4750  -21.6280  -22.6980 C.ar    1  UNL1        0.0859
     13 C           6.6650  -20.8700  -21.8340 C.ar    1  UNL1        0.0238
     14 C           4.7420  -21.1580  -19.4310 C.3     1  UNL1        0.0757
     15 C           5.8960  -24.6810  -25.1220 C.3     1  UNL1        0.0984
     16 C           5.6420  -25.4440  -26.4280 C.3     1  UNL1        0.0408
     17 C           4.2150  -25.9950  -26.4520 C.3     1  UNL1        0.0972
     18 C           4.3590  -26.2590  -23.9370 C.3     1  UNL1        0.0972
     19 C           5.7690  -25.6830  -23.9720 C.3     1  UNL1        0.0408
     20 C           1.3490  -27.1860  -24.8320 C.3     1  UNL1        0.1960
     21 N           9.1060  -23.0950  -24.3230 N.ar    1  UNL1       -0.2109
     22 N           6.9680  -22.5420  -23.5750 N.ar    1  UNL1       -0.2124
     23 N           7.2640  -24.1730  -25.2160 N.pl3   1  UNL1       -0.2055
     24 N           3.9280  -26.7890  -25.2400 N.3     1  UNL1       -0.1593
     25 N           5.2040  -19.7580  -19.5110 N.am    1  UNL1       -0.2777
     26 O           2.7610  -28.4880  -26.6570 O.2     1  UNL1       -0.1572
     27 O           3.1410  -28.9630  -24.2290 O.2     1  UNL1       -0.1572
     28 O           6.4740  -18.0100  -19.9380 O.2     1  UNL1       -0.2699
     29 S           2.8560  -28.0100  -25.2850 S.O2    1  UNL1        0.0457
@<TRIPOS>BOND
     1     2     1    1
     2     5     4    1
     3     6     5   ar
     4     6     3   ar
     5     7     3   ar
     6     8     7   ar
     7     9     1    1
     8    12     7   ar
     9    13    12   ar
    10    13     5   ar
    11    14     9    1
    12    14    10    1
    13    16    15    1
    14    17    16    1
    15    19    18    1
    16    19    15    1
    17    21    11   ar
    18    21     8   ar
    19    22    11   ar
    20    22    12   ar
    21    15    23    1
    22    23    11    1
    23    24    18    1
    24    24    17    1
    25    25    14    1
    26    25     2    1
    27    25     4   am
    28    28     4    2
    29    29    27    2
    30    29    26    2
    31    29    24    1
    32    29    20    1
