@<TRIPOS>MOLECULE
3R73_X87_A920
 25 26 0 0 0
SMALL
GASTEIGER

@<TRIPOS>ATOM
      1 N           7.1880  -24.8280  -24.2180 N.pl3   1  UNL1       -0.2326
      2 N           9.9380  -21.9580  -23.1760 N.am    1  UNL1       -0.0837
      3 N           3.1260  -26.3880  -26.2830 N.ar    1  UNL1       -0.2426
      4 N           3.7450  -22.5570  -21.8820 N.pl3   1  UNL1       -0.2317
      5 N          -0.5130  -22.9280  -20.7330 N.3     1  UNL1       -0.1313
      6 N           5.4420  -20.4020  -21.5030 N.pl3   1  UNL1        0.0823
      7 C           7.1690  -21.5030  -22.6540 C.ar    1  UNL1        0.0826
      8 C           7.6510  -22.6500  -23.3660 C.ar    1  UNL1        0.0777
      9 C           6.7710  -23.7710  -23.5670 C.ar    1  UNL1        0.0718
     10 C           5.4330  -23.7110  -23.0430 C.ar    1  UNL1        0.0386
     11 C           4.9580  -22.5740  -22.3360 C.ar    1  UNL1        0.1360
     12 C           5.8330  -21.4510  -22.1360 C.ar    1  UNL1        0.3047
     13 C           8.9590  -22.6480  -23.8430 C.2     1  UNL1        0.2856
     14 C           6.4110  -26.0990  -24.3430 C.3     1  UNL1        0.1401
     15 C           5.4140  -26.0260  -25.4820 C.ar    1  UNL1        0.0185
     16 C           4.0790  -26.4330  -25.2890 C.ar    1  UNL1        0.0963
     17 C           3.5140  -25.9170  -27.5230 C.ar    1  UNL1        0.0989
     18 C           4.8220  -25.4880  -27.8100 C.ar    1  UNL1        0.0204
     19 C           5.7820  -25.5470  -26.7680 C.ar    1  UNL1        0.0006
     20 C           3.1080  -23.7550  -21.2780 C.3     1  UNL1        0.1140
     21 C           1.6130  -23.7420  -21.5740 C.3     1  UNL1        0.0438
     22 C           0.8650  -23.1560  -20.3800 C.3     1  UNL1        0.1111
     23 O           9.2600  -23.2650  -24.8400 O.2     1  UNL1       -0.2666
     24 O           4.5410  -20.4830  -20.5430 O.2     1  UNL1        0.0415
     25 O           5.9450  -19.2200  -21.8000 O.co2   1  UNL1       -0.5760
@<TRIPOS>UNITY_ATOM_ATTR
6 1
charge 1
25 1
charge -1
@<TRIPOS>BOND
     1     8     7   ar
     2     9     8   ar
     3     9     1    1
     4    10     9   ar
     5    11    10   ar
     6    11     4    1
     7    12    11   ar
     8    12     6    1
     9    12     7   ar
    10    13     8    1
    11    13     2   am
    12    14     1    1
    13    15    14    1
    14    16    15   ar
    15    16     3   ar
    16    17     3   ar
    17    18    17   ar
    18    19    18   ar
    19    19    15   ar
    20    20     4    1
    21    21    20    1
    22    22    21    1
    23    22     5    1
    24    23    13    2
    25    24     6    2
    26    25     6    1
