@<TRIPOS>MOLECULE
7F1Z_LDP_F501
 11 11 0 0 0
SMALL
GASTEIGER

@<TRIPOS>ATOM
      1 C         125.8800  121.3460  142.6620 C.3     1  UNL1        0.0469
      2 C         124.4480  120.8940  142.6270 C.ar    1  UNL1       -0.0173
      3 C         121.8720  120.0610  142.6030 C.ar    1  UNL1        0.2342
      4 C         123.9330  120.3140  143.7390 C.ar    1  UNL1        0.0412
      5 C         123.7050  121.0610  141.5020 C.ar    1  UNL1       -0.0007
      6 C         122.4070  120.6390  141.4910 C.ar    1  UNL1        0.0451
      7 C         122.6420  119.9030  143.7260 C.ar    1  UNL1        0.2339
      8 O         122.1320  119.3100  144.8780 O.3     1  UNL1       -0.2832
      9 O         120.5400  119.6440  142.5790 O.3     1  UNL1       -0.2831
     10 C         126.3700  121.6890  141.2810 C.3     1  UNL1        0.1140
     11 N         127.6780  122.2560  141.4790 N.3     1  UNL1       -0.1310
@<TRIPOS>BOND
     1     2     1    1
     2     4     2   ar
     3     5     2   ar
     4     6     5   ar
     5     6     3   ar
     6     7     4   ar
     7     7     3   ar
     8     8     7    1
     9     9     3    1
    10    10     1    1
    11    11    10    1
