@<TRIPOS>MOLECULE
7F23_LDP_F501
 11 11 0 0 0
SMALL
GASTEIGER

@<TRIPOS>ATOM
      1 C         126.4320  121.4040  142.9530 C.3     1  UNL1        0.0469
      2 C         125.0190  120.8690  142.8430 C.ar    1  UNL1       -0.0173
      3 C         122.4830  119.9180  142.6660 C.ar    1  UNL1        0.2342
      4 C         124.4160  120.3550  143.9560 C.ar    1  UNL1        0.0412
      5 C         124.3650  120.9110  141.6440 C.ar    1  UNL1       -0.0007
      6 C         123.0870  120.4300  141.5570 C.ar    1  UNL1        0.0451
      7 C         123.1450  119.8830  143.8540 C.ar    1  UNL1        0.2339
      8 O         122.5250  119.3590  144.9780 O.3     1  UNL1       -0.2832
      9 O         121.1870  119.4220  142.5880 O.3     1  UNL1       -0.2831
     10 C         127.1120  121.4790  141.5980 C.3     1  UNL1        0.1140
     11 N         128.2970  122.2960  141.7350 N.3     1  UNL1       -0.1310
@<TRIPOS>BOND
     1     2     1    1
     2     4     2   ar
     3     5     2   ar
     4     6     5   ar
     5     6     3   ar
     6     7     4   ar
     7     7     3   ar
     8     8     7    1
     9     9     3    1
    10    10     1    1
    11    11    10    1
