@<TRIPOS>MOLECULE
7CKW_G3C_R501
 21 23 0 0 0
SMALL
GASTEIGER

@<TRIPOS>ATOM
      1 C         126.9710  123.5130  147.9890 C.ar    1  UNL1        0.0417
      2 C         128.3570  121.5560  147.8690 C.ar    1  UNL1        0.0417
      3 C         127.7780  121.4340  143.7710 C.3     1  UNL1        0.0974
      4 C         126.7670  120.9920  141.6010 C.3     1  UNL1        0.0934
      5 C         123.6580  119.9150  143.1330 C.ar    1  UNL1        0.0955
      6 C         123.1360  119.3450  144.2930 C.ar    1  UNL1        0.2443
      7 C         123.7190  119.6230  145.5370 C.ar    1  UNL1        0.2348
      8 C         124.8230  120.4720  145.6240 C.ar    1  UNL1        0.0412
      9 C         125.3510  121.0460  144.4430 C.ar    1  UNL1       -0.0167
     10 C         126.5780  121.9910  144.5290 C.3     1  UNL1        0.0617
     11 C         127.0380  122.2090  145.9730 C.ar    1  UNL1       -0.0168
     12 C         126.5590  123.2980  146.6820 C.ar    1  UNL1       -0.0006
     13 C         127.8710  122.6420  148.5800 C.ar    1  UNL1        0.1957
     14 C         127.9450  121.3410  146.5640 C.ar    1  UNL1       -0.0006
     15 C         125.3290  121.3900  141.9170 C.3     1  UNL1        0.0458
     16 C         124.7790  120.7710  143.2250 C.ar    1  UNL1       -0.0104
     17 N         127.7620  121.7240  142.3550 N.3     1  UNL1       -0.2170
     18 O         122.0290  118.4930  144.2140 O.3     1  UNL1       -0.2822
     19 O         123.1910  119.0460  146.6980 O.3     1  UNL1       -0.2831
     20 O         128.2900  122.8590  149.9010 O.3     1  UNL1       -0.2866
     21 CL        122.9230  119.5670  141.5440 Cl      1  UNL1       -0.0791
@<TRIPOS>BOND
     1     6     5   ar
     2     7     6   ar
     3     8     7   ar
     4     9     8   ar
     5    10     9    1
     6    10     3    1
     7    10    11    1
     8    12    11   ar
     9    12     1   ar
    10    13     2   ar
    11    13     1   ar
    12    14    11   ar
    13    14     2   ar
    14    15     4    1
    15    16    15    1
    16    16     5   ar
    17    16     9   ar
    18    17     4    1
    19    17     3    1
    20    18     6    1
    21    19     7    1
    22    20    13    1
    23    21     5    1
