@<TRIPOS>MOLECULE
7F1Z_GDP_A401
 28 30 0 0 0
SMALL
GASTEIGER

@<TRIPOS>ATOM
      1 P         116.4260  122.9300  136.7220 P.3     1  UNL1        0.5373
      2 O         117.8250  123.4530  136.8290 O.2     1  UNL1       -0.2221
      3 O         115.6230  123.8520  135.8470 O.3     1  UNL1       -0.1143
      4 O         116.4440  121.5530  136.1190 O.3     1  UNL1       -0.1143
      5 O         115.8130  122.8450  138.1980 O.3     1  UNL1       -0.2261
      6 P         116.2030  121.5500  139.0450 P.3     1  UNL1        0.2231
      7 O         117.6860  121.4760  139.2390 O.2     1  UNL1       -0.5169
      8 O         115.6520  120.3350  138.3570 O.3     1  UNL1       -0.4370
      9 O         115.5030  121.6760  140.4710 O.3     1  UNL1       -0.3111
     10 C         116.2850  121.2600  141.5800 C.3     1  UNL1        0.1813
     11 C         115.7650  119.9800  142.2160 C.3     1  UNL1        0.1801
     12 O         116.4060  118.8400  141.6380 O.3     1  UNL1       -0.3306
     13 C         116.1070  119.9820  143.6950 C.3     1  UNL1        0.2161
     14 O         114.9210  120.0830  144.4840 O.3     1  UNL1       -0.2175
     15 C         116.7920  118.6660  143.9640 C.3     1  UNL1        0.2337
     16 O         116.1180  117.9540  144.9990 O.3     1  UNL1       -0.2155
     17 C         116.7000  117.8940  142.6660 C.3     1  UNL1        0.2409
     18 N         117.9950  117.2010  142.4790 N.ar    1  UNL1       -0.2693
     19 C         119.0040  117.5580  141.6690 C.ar    1  UNL1        0.1817
     20 N         120.0380  116.6880  141.7720 N.ar    1  UNL1       -0.2173
     21 C         119.6930  115.7540  142.6710 C.ar    1  UNL1        0.1748
     22 C         120.3100  114.5510  143.2570 C.ar    1  UNL1        0.3023
     23 O         121.4460  114.1790  142.9170 O.2     1  UNL1       -0.2633
     24 N         119.6190  113.8570  144.1580 N.ar    1  UNL1       -0.1709
     25 C         118.3910  114.2230  144.5470 C.ar    1  UNL1        0.2606
     26 N         117.7500  113.4680  145.4690 N.pl3   1  UNL1       -0.0859
     27 N         117.7620  115.3150  144.0550 N.ar    1  UNL1       -0.1918
     28 C         118.3550  116.1030  143.1350 C.ar    1  UNL1        0.1723
@<TRIPOS>BOND
     1     2     1    2
     2     3     1    1
     3     4     1    1
     4     5     1    1
     5     6     5    1
     6     7     6    2
     7     8     6    1
     8     9     6    1
     9    10     9    1
    10    11    10    1
    11    12    11    1
    12    13    11    1
    13    13    14    1
    14    15    13    1
    15    15    16    1
    16    17    12    1
    17    17    15    1
    18    17    18    1
    19    19    18   ar
    20    20    19   ar
    21    21    20   ar
    22    22    21   ar
    23    23    22    2
    24    24    22   ar
    25    25    24   ar
    26    26    25    1
    27    27    25   ar
    28    28    27   ar
    29    28    21   ar
    30    28    18   ar
