@<TRIPOS>MOLECULE
7F24_LDP_F501
 11 11 0 0 0
SMALL
GASTEIGER

@<TRIPOS>ATOM
      1 C         125.3090  122.0430  142.3450 C.3     1  UNL1        0.0469
      2 C         124.2010  121.0620  142.6680 C.ar    1  UNL1       -0.0173
      3 C         122.2150  119.2790  143.2670 C.ar    1  UNL1        0.2342
      4 C         124.2280  120.3930  143.8640 C.ar    1  UNL1        0.0412
      5 C         123.1890  120.8420  141.7680 C.ar    1  UNL1       -0.0007
      6 C         122.1910  119.9450  142.0690 C.ar    1  UNL1        0.0451
      7 C         123.2290  119.5020  144.1590 C.ar    1  UNL1        0.2339
      8 O         123.2420  118.8150  145.3710 O.3     1  UNL1       -0.2832
      9 O         121.2160  118.3640  143.5870 O.3     1  UNL1       -0.2831
     10 C         126.6720  121.3810  142.4170 C.3     1  UNL1        0.1140
     11 N         127.5830  122.0570  141.5230 N.3     1  UNL1       -0.1310
@<TRIPOS>BOND
     1     2     1    1
     2     4     2   ar
     3     5     2   ar
     4     6     3   ar
     5     6     5   ar
     6     7     3   ar
     7     7     4   ar
     8     8     7    1
     9     9     3    1
    10    10     1    1
    11    11    10    1
