@<TRIPOS>MOLECULE
6PSJ_29S_B601
 35 39 0 0 0
SMALL
GASTEIGER

@<TRIPOS>ATOM
      1 C          28.5220   -3.5600    6.4350 C.3     1  UNL1        0.0722
      2 C          27.7300   -2.4880    7.1330 C.3     1  UNL1        0.0173
      3 C          26.2340   -2.6230    7.0500 C.3     1  UNL1        0.0015
      4 C          25.6430   -3.0580    5.7540 C.3     1  UNL1        0.0015
      5 C          25.8780   -4.5000    5.4280 C.3     1  UNL1        0.0173
      6 C          27.2690   -5.0100    5.5850 C.3     1  UNL1        0.0722
      7 N          27.9430   -4.7090    6.6600 N.3     1  UNL1       -0.2696
      8 C          28.8460   -5.5580    6.8480 C.3     1  UNL1        0.1200
      9 C          28.4600   -6.7660    7.7210 C.3     1  UNL1        0.2226
     10 O          27.1670   -7.1680    7.4910 O.3     1  UNL1       -0.4740
     11 C          26.9290   -8.5230    7.1270 C.ar    1  UNL1        0.1386
     12 C          27.8840   -9.4860    6.8910 C.ar    1  UNL1        0.0366
     13 C          27.4450  -10.7960    6.5750 C.ar    1  UNL1        0.0007
     14 C          25.6080   -8.8670    7.0240 C.ar    1  UNL1        0.0366
     15 C          25.2050  -10.1380    6.6870 C.ar    1  UNL1        0.0007
     16 C          26.1140  -11.1300    6.4760 C.ar    1  UNL1        0.0006
     17 C          25.5390  -12.5560    6.1150 C.3     1  UNL1        0.1327
     18 N          24.1310  -12.4960    5.9180 N.ar    1  UNL1       -0.3232
     19 C          23.5310  -12.1020    4.8020 C.ar    1  UNL1        0.0600
     20 C          24.0130  -11.6660    3.5210 C.ar    1  UNL1        0.0205
     21 C          23.1500  -11.3280    2.5120 C.ar    1  UNL1        0.0435
     22 C          21.7910  -11.3990    2.7130 C.ar    1  UNL1        0.1958
     23 O          20.9070  -11.0260    1.7040 O.3     1  UNL1       -0.2866
     24 C          21.2930  -11.7920    3.9510 C.ar    1  UNL1        0.0432
     25 C          22.1670  -12.1490    4.9820 C.ar    1  UNL1        0.0164
     26 C          21.9660  -12.5970    6.3220 C.ar    1  UNL1       -0.0046
     27 C          20.6530  -12.8090    7.0110 C.3     1  UNL1        0.0326
     28 C          23.2310  -12.7650    6.8390 C.ar    1  UNL1        0.0561
     29 C          23.5310  -13.2800    8.2290 C.ar    1  UNL1        0.0157
     30 C          24.3120  -12.5920    9.1020 C.ar    1  UNL1        0.0047
     31 C          24.6150  -13.0760   10.3590 C.ar    1  UNL1        0.0421
     32 C          24.1220  -14.2930   10.7580 C.ar    1  UNL1        0.1957
     33 O          24.4340  -14.8240   12.0170 O.3     1  UNL1       -0.2866
     34 C          23.3340  -15.0160    9.8870 C.ar    1  UNL1        0.0421
     35 C          23.0420  -14.5130    8.6330 C.ar    1  UNL1        0.0047
@<TRIPOS>BOND
     1     2     1    1
     2     3     2    1
     3     4     3    1
     4     5     4    1
     5     6     5    1
     6     7     6    1
     7     7     1    1
     8     8     7    1
     9     9     8    1
    10    10     9    1
    11    11    10    1
    12    12    11   ar
    13    13    12   ar
    14    14    11   ar
    15    15    14   ar
    16    16    15   ar
    17    16    13   ar
    18    17    16    1
    19    18    17    1
    20    19    18   ar
    21    20    19   ar
    22    21    20   ar
    23    22    21   ar
    24    23    22    1
    25    24    22   ar
    26    25    24   ar
    27    25    19   ar
    28    26    25   ar
    29    27    26    1
    30    28    26   ar
    31    28    18   ar
    32    29    28    1
    33    30    29   ar
    34    31    30   ar
    35    32    31   ar
    36    33    32    1
    37    34    32   ar
    38    35    34   ar
    39    35    29   ar
