@<TRIPOS>MOLECULE
1XPC_AIT_A600
 33 37 0 0 0
SMALL
GASTEIGER

@<TRIPOS>ATOM
      1 C          23.7750  -13.5110    7.4300 C.3     1  UNL1        0.1184
      2 C          24.9580  -12.9020    6.6640 C.3     1  UNL1        0.2023
      3 O          24.7400  -13.0520    5.2330 O.3     1  UNL1       -0.4730
      4 C          23.6130  -12.5080    4.6940 C.ar    1  UNL1        0.1447
      5 C          23.8360  -12.0840    3.3760 C.ar    1  UNL1        0.0407
      6 C          22.7910  -11.5180    2.6900 C.ar    1  UNL1        0.0452
      7 C          21.5430  -11.3550    3.3220 C.ar    1  UNL1        0.1964
      8 O          20.5810  -10.8420    2.5340 O.3     1  UNL1       -0.2866
      9 C          21.3310  -11.8260    4.6260 C.ar    1  UNL1        0.0512
     10 C          22.3910  -12.3660    5.3660 C.ar    1  UNL1        0.0628
     11 S          22.2180  -12.8250    6.8260 S.3     1  UNL1       -0.1029
     12 C          24.0880  -13.3410    8.9010 C.ar    1  UNL1       -0.0081
     13 C          23.6150  -12.2690    9.6740 C.ar    1  UNL1       -0.0000
     14 C          23.9840  -12.1990   11.0190 C.ar    1  UNL1        0.0417
     15 C          24.7990  -13.1800   11.6180 C.ar    1  UNL1        0.1957
     16 O          25.1520  -13.1300   12.9210 O.3     1  UNL1       -0.2866
     17 C          25.2580  -14.2630   10.8500 C.ar    1  UNL1        0.0417
     18 C          24.8660  -14.3260    9.5080 C.ar    1  UNL1       -0.0000
     19 C          25.3810  -11.4690    6.9280 C.ar    1  UNL1        0.0186
     20 C          26.7450  -11.1640    7.0010 C.ar    1  UNL1        0.0023
     21 C          27.2670   -9.8690    7.2090 C.ar    1  UNL1        0.0367
     22 C          26.3720   -8.8180    7.4310 C.ar    1  UNL1        0.1386
     23 C          24.9970   -9.1050    7.3720 C.ar    1  UNL1        0.0367
     24 C          24.5110  -10.3740    7.1040 C.ar    1  UNL1        0.0023
     25 O          26.7570   -7.5450    7.6360 O.3     1  UNL1       -0.4740
     26 C          28.0770   -7.1260    7.2450 C.3     1  UNL1        0.2211
     27 C          28.3700   -5.6670    7.6860 C.3     1  UNL1        0.1016
     28 C          29.8770   -5.5340    7.6550 C.3     1  UNL1        0.0213
     29 N          27.8650   -4.6480    6.7500 N.3     1  UNL1       -0.2708
     30 C          27.4910   -3.3550    7.3860 C.3     1  UNL1        0.0722
     31 C          26.3840   -2.7500    6.4940 C.3     1  UNL1        0.0188
     32 C          26.1670   -3.7870    5.3930 C.3     1  UNL1        0.0188
     33 C          26.6360   -5.0900    6.0980 C.3     1  UNL1        0.0722
@<TRIPOS>BOND
     1     2     1    1
     2     3     2    1
     3     4     3    1
     4     5     4   ar
     5     6     5   ar
     6     7     6   ar
     7     8     7    1
     8     9     7   ar
     9    10     9   ar
    10    10     4   ar
    11    11    10    1
    12    11     1    1
    13     1    12    1
    14    13    12   ar
    15    14    13   ar
    16    15    14   ar
    17    16    15    1
    18    17    15   ar
    19    18    17   ar
    20    18    12   ar
    21     2    19    1
    22    20    19   ar
    23    21    20   ar
    24    22    21   ar
    25    23    22   ar
    26    24    19   ar
    27    24    23   ar
    28    25    22    1
    29    26    25    1
    30    27    26    1
    31    27    28    1
    32    29    27    1
    33    30    29    1
    34    31    30    1
    35    32    31    1
    36    33    32    1
    37    33    29    1
