@<TRIPOS>MOLECULE
7RS4_7I0_C601
 32 35 0 0 0
SMALL
GASTEIGER

@<TRIPOS>ATOM
      1 C          26.7830  -13.3390   11.5490 C.ar    1  UNL1        0.1410
      2 C          27.2410  -14.0860   10.4580 C.ar    1  UNL1        0.0297
      3 C          26.6030  -14.0270    9.2380 C.ar    1  UNL1        0.0028
      4 C          24.8130  -13.1750    7.8550 C.2     1  UNL1       -0.0214
      5 C          23.9580  -14.4400    7.4950 C.3     1  UNL1        0.0264
      6 C          24.8220  -11.9500    6.9930 C.2     1  UNL1       -0.0039
      7 C          25.2310   -9.5670    7.2810 C.ar    1  UNL1       -0.0000
      8 C          27.4470   -8.6320    7.6200 C.ar    1  UNL1        0.0002
      9 C          28.2030   -7.4600    7.7850 C.2     1  UNL1        0.0068
     10 C          29.6780   -7.5090    8.1640 C.2     1  UNL1        0.0861
     11 C          30.4860   -6.2160    8.3030 C.2     1  UNL1        0.3880
     12 C          24.0700  -11.8540    5.8150 C.ar    1  UNL1       -0.0002
     13 C          24.0110  -11.4330    3.4380 C.ar    1  UNL1        0.0210
     14 C          22.0370  -11.6730    4.6330 C.ar    1  UNL1        0.0403
     15 O          31.6790   -6.2700    8.6240 O.co2   1  UNL1       -0.2405
     16 O          29.9810   -5.1020    8.1060 O.co2   1  UNL1       -0.2405
     17 C          27.9690   -9.9260    7.5300 C.ar    1  UNL1        0.0000
     18 C          27.0910  -11.0010    7.3200 C.ar    1  UNL1       -0.0000
     19 C          26.0740   -8.4880    7.4750 C.ar    1  UNL1        0.0000
     20 C          25.6990  -10.8540    7.2450 C.ar    1  UNL1       -0.0003
     21 C          22.8700  -14.7500    8.4980 C.3     1  UNL1        0.0050
     22 C          25.5000  -13.1890    9.0690 C.ar    1  UNL1        0.0068
     23 C          25.0440  -12.4390   10.1710 C.ar    1  UNL1        0.0596
     24 CL         23.7120  -11.3620   10.1430 Cl      1  UNL1       -0.0822
     25 C          25.6840  -12.5130   11.4030 C.ar    1  UNL1        0.0410
     26 F          27.3750  -13.3560   12.6700 F       1  UNL1       -0.2041
     27 C          22.6920  -11.8530    5.8010 C.ar    1  UNL1        0.0032
     28 C          20.7340  -11.6740    4.3590 C.ar    1  UNL1        0.1237
     29 N          20.5950  -11.4400    3.0440 N.ar    1  UNL1       -0.1464
     30 N          21.8350  -11.2920    2.4830 N.ar    1  UNL1       -0.1479
     31 C          22.6980  -11.4530    3.4710 C.ar    1  UNL1        0.1044
     32 C          24.7130  -11.6040    4.6050 C.ar    1  UNL1        0.0016
@<TRIPOS>BOND
     1     2     1   ar
     2     3     2   ar
     3     5     4    1
     4     6     4    2
     5     9     8    1
     6    10     9    2
     7    11    10    1
     8    12     6    1
     9    15    11   ar
    10    16    11   ar
    11    17     8   ar
    12    18    17   ar
    13    19     7   ar
    14    19     8   ar
    15    20    18   ar
    16    20     6    1
    17    20     7   ar
    18    21     5    1
    19    22     4    1
    20    22     3   ar
    21    23    22   ar
    22    24    23    1
    23    25    23   ar
    24    25     1   ar
    25    26     1    1
    26    27    14   ar
    27    27    12   ar
    28    28    14   ar
    29    29    28   ar
    30    30    29   ar
    31    31    30   ar
    32    31    14   ar
    33    31    13   ar
    34    32    13   ar
    35    32    12   ar
