@<TRIPOS>MOLECULE
7NEL_EST_A601
 44 47 0 0 0
SMALL
GASTEIGER

@<TRIPOS>ATOM
      1  C1        23.8860  -11.3500    4.0690 C.ar  601  EST601     -0.0546
      2  C2        23.0690  -11.0940    2.9600 C.ar  601  EST601     -0.0199
      3  C3        21.7060  -11.2480    3.0940 C.ar  601  EST601      0.1171
      4  O3        20.8910  -11.0200    2.0060 O.3   601  EST601     -0.5068
      5  C4        21.1500  -11.6710    4.3080 C.ar  601  EST601     -0.0167
      6  C5        21.9770  -11.9070    5.4120 C.ar  601  EST601     -0.0405
      7  C6        21.3310  -12.3480    6.6960 C.3   601  EST601     -0.0270
      8  C7        22.3190  -12.9810    7.6610 C.3   601  EST601     -0.0454
      9  C8        23.5180  -12.0680    7.8330 C.3   601  EST601     -0.0305
     10  C9        24.2830  -12.0290    6.5000 C.3   601  EST601     -0.0125
     11  C10       23.3500  -11.7520    5.3080 C.ar  601  EST601     -0.0406
     12  C11       25.4620  -11.0380    6.6360 C.3   601  EST601     -0.0454
     13  C12       26.4390  -11.4310    7.8030 C.3   601  EST601     -0.0445
     14  C13       25.6910  -11.6000    9.1060 C.3   601  EST601     -0.0030
     15  C14       24.5150  -12.5810    8.8910 C.3   601  EST601     -0.0298
     16  C15       24.0040  -12.8120   10.3350 C.3   601  EST601     -0.0470
     17  C16       25.2980  -12.7690   11.2050 C.3   601  EST601     -0.0261
     18  C17       26.4530  -12.3730   10.2450 C.3   601  EST601      0.0609
     19  O17       27.3830  -11.5740   10.8690 O.3   601  EST601     -0.3912
     20  C18       25.2480  -10.2270    9.5940 C.3   601  EST601     -0.0569
     21  H1        24.8060  -11.2520    3.9810 H     601  EST601      0.0622
     22  H2        23.4400  -10.8250    2.1500 H     601  EST601      0.0654
     23  HO3       20.8110  -10.1740    1.9660 H     601  EST601      0.2921
     24  H4        20.2310  -11.7950    4.3830 H     601  EST601      0.0657
     25  H61       20.8920  -11.5990    7.1300 H     601  EST601      0.0313
     26  H62       20.6110  -12.9730    6.5170 H     601  EST601      0.0313
     27  H71       22.5990  -13.8540    7.3440 H     601  EST601      0.0271
     28  H72       21.8990  -13.1560    8.5180 H     601  EST601      0.0271
     29  H8        23.1970  -11.1860    8.0760 H     601  EST601      0.0310
     30  H9        24.6370  -12.9060    6.2840 H     601  EST601      0.0352
     31 H111       25.1260  -10.1380    6.7700 H     601  EST601      0.0271
     32 H112       25.9470  -10.9820    5.7980 H     601  EST601      0.0271
     33 H121       27.1370  -10.7640    7.8990 H     601  EST601      0.0272
     34 H122       26.9190  -12.2450    7.5820 H     601  EST601      0.0272
     35  H14       24.8590  -13.4120    8.5280 H     601  EST601      0.0310
     36 H151       23.5280  -13.6520   10.4280 H     601  EST601      0.0269
     37 H152       23.3560  -12.1440   10.6090 H     601  EST601      0.0269
     38 H161       25.4640  -13.6230   11.6340 H     601  EST601      0.0290
     39 H162       25.2090  -12.1400   11.9380 H     601  EST601      0.0290
     40  H17       26.8950  -13.1440    9.8570 H     601  EST601      0.0599
     41  HO7       27.7200  -11.0690   10.2740 H     601  EST601      0.2098
     42 H181       24.6160   -9.8060    8.9920 H     601  EST601      0.0236
     43 H182       25.9910   -9.6100    9.6860 H     601  EST601      0.0236
     44 H183       24.8160  -10.2640   10.4620 H     601  EST601      0.0236
@<TRIPOS>BOND
     1    23     4    1
     2     4     3    1
     3    22     2    1
     4     2     3   ar
     5     2     1   ar
     6     3     5   ar
     7    21     1    1
     8     1    11   ar
     9     5    24    1
    10     5     6   ar
    11    11     6   ar
    12    11    10    1
    13     6     7    1
    14    32    12    1
    15    30    10    1
    16    10    12    1
    17    10     9    1
    18    26     7    1
    19    12    31    1
    20    12    13    1
    21     7    25    1
    22     7     8    1
    23    27     8    1
    24    34    13    1
    25     8     9    1
    26     8    28    1
    27    13    33    1
    28    13    14    1
    29     9    29    1
    30     9    15    1
    31    35    15    1
    32    15    14    1
    33    15    16    1
    34    42    20    1
    35    14    20    1
    36    14    18    1
    37    20    43    1
    38    20    44    1
    39    40    18    1
    40    18    19    1
    41    18    17    1
    42    41    19    1
    43    16    36    1
    44    16    37    1
    45    16    17    1
    46    17    38    1
    47    17    39    1
