@<TRIPOS>MOLECULE
7RRZ_77I_B601
 47 52 0 0 0
SMALL
GASTEIGER

@<TRIPOS>ATOM
      1 C          27.7450   -6.4010   10.4010 C.3     1  UNL1        0.2525
      2 C          26.3080   -8.2220   10.7640 C.ar    1  UNL1        0.1388
      3 C          26.9710  -10.5160   10.3050 C.ar    1  UNL1        0.0192
      4 C          25.9730  -10.9950   11.1580 C.ar    1  UNL1        0.0690
      5 C          21.5210  -11.2020    3.0780 C.ar    1  UNL1        0.1957
      6 C          20.8230  -11.7230    4.1650 C.ar    1  UNL1        0.0420
      7 C          21.4990  -12.1150    5.3210 C.ar    1  UNL1        0.0030
      8 C          27.6680   -9.9600    6.8440 C.ar    1  UNL1        0.0369
      9 C          25.7200   -8.5310    6.6820 C.ar    1  UNL1        0.0369
     10 C          25.4400  -10.9150    6.9710 C.ar    1  UNL1       -0.0017
     11 C          27.0830  -12.9440   13.2870 C.3     1  UNL1        0.4174
     12 C          28.1970   -2.5830    5.8040 C.3     1  UNL1        0.0721
     13 C          28.4830   -1.1430    5.3710 C.3     1  UNL1        0.0174
     14 C          29.6100   -1.0370    4.3420 C.3     1  UNL1        0.0029
     15 C          30.8920   -1.7270    4.8140 C.3     1  UNL1        0.0174
     16 C          30.6060   -2.8710    5.7760 C.3     1  UNL1        0.0721
     17 C          29.2880   -4.7930    6.0770 C.3     1  UNL1        0.0759
     18 C          27.8900   -5.3390    6.3040 C.3     1  UNL1        0.0646
     19 C          27.7070   -6.6850    5.6370 C.3     1  UNL1        0.2068
     20 C          25.1350  -10.0680   11.7980 C.ar    1  UNL1        0.0192
     21 C          25.3030   -8.6930   11.6010 C.ar    1  UNL1        0.0382
     22 C          27.1330   -9.1420   10.1130 C.ar    1  UNL1        0.0382
     23 C          26.9310  -13.1210   11.7820 C.3     1  UNL1        0.2182
     24 C          23.5990  -11.4610    4.3040 C.ar    1  UNL1        0.0030
     25 C          22.9100  -11.0690    3.1480 C.ar    1  UNL1        0.0420
     26 C          26.8300  -11.0640    6.9940 C.ar    1  UNL1        0.0029
     27 C          27.1210   -8.6950    6.6710 C.ar    1  UNL1        0.1386
     28 C          24.8800   -9.6470    6.8240 C.ar    1  UNL1        0.0029
     29 C          22.9040  -11.9860    5.4150 C.ar    1  UNL1       -0.0017
     30 C          22.9600  -13.4590    7.4890 C.3     1  UNL1        0.1394
     31 C          23.5260  -12.3980    6.5560 C.2     1  UNL1        0.0030
     32 C          22.5170  -12.8150    8.8040 C.3     1  UNL1        0.0625
     33 C          24.7000  -12.0220    7.1200 C.2     1  UNL1        0.0046
     34 C          24.8400  -12.8720    8.3430 C.3     1  UNL1        0.1612
     35 C          23.8580  -12.3020    9.3470 C.3     1  UNL1        0.1829
     36 F          27.7160  -11.7440   13.5790 F       1  UNL1       -0.1681
     37 F          25.8010  -12.8610   13.8070 F       1  UNL1       -0.1681
     38 F          27.7890  -14.0060   13.8640 F       1  UNL1       -0.1681
     39 N          29.3100   -3.4760    5.4740 N.3     1  UNL1       -0.2726
     40 N          25.8110  -12.2590   11.3220 N.pl3   1  UNL1       -0.1856
     41 O          23.2240  -12.3130   11.7800 O.2     1  UNL1       -0.1542
     42 O          24.2170  -14.3550   11.1340 O.2     1  UNL1       -0.1542
     43 O          26.4300   -6.8750   10.5950 O.3     1  UNL1       -0.4714
     44 O          28.0040   -7.6890    6.5460 O.3     1  UNL1       -0.4754
     45 O          20.8330  -10.8320    1.9780 O.3     1  UNL1       -0.2866
     46 O          24.1520  -14.0940    7.9860 O.3     1  UNL1       -0.3481
     47 S          24.2660  -12.9130   10.9790 S.O2    1  UNL1        0.0582
@<TRIPOS>BOND
     1     4     3   ar
     2     6     5   ar
     3     7     6   ar
     4    13    12    1
     5    14    13    1
     6    15    14    1
     7    16    15    1
     8    18    17    1
     9    19    18    1
    10    20     4   ar
    11    21     2   ar
    12    21    20   ar
    13    22     3   ar
    14    22     2   ar
    15    23    11    1
    16    25     5   ar
    17    25    24   ar
    18    26    10   ar
    19    26     8   ar
    20    27     9   ar
    21    27     8   ar
    22    28    10   ar
    23    28     9   ar
    24    29     7   ar
    25    29    24   ar
    26    31    29    1
    27    31    30    1
    28    30    32    1
    29    33    31    2
    30    33    10    1
    31    34    33    1
    32    35    34    1
    33    35    32    1
    34    11    36    1
    35    37    11    1
    36    38    11    1
    37    39    17    1
    38    39    16    1
    39    39    12    1
    40    40    23    1
    41    40     4    1
    42    43     2    1
    43    43     1    1
    44    44    27    1
    45    44    19    1
    46    45     5    1
    47    46    34    1
    48    46    30    1
    49    47    35    1
    50    47    42    2
    51    47    41    2
    52    47    40    1
