@<TRIPOS>MOLECULE
1XP9_AIJ_A600
 33 37 0 0 0
SMALL
GASTEIGER

@<TRIPOS>ATOM
      1 C          23.7330  -13.3920    7.4140 C.3     1  UNL1        0.1184
      2 C          24.9640  -12.8650    6.6510 C.3     1  UNL1        0.2023
      3 O          24.7160  -13.0150    5.2320 O.3     1  UNL1       -0.4730
      4 C          23.6300  -12.4670    4.6370 C.ar    1  UNL1        0.1447
      5 C          23.8270  -12.1000    3.3030 C.ar    1  UNL1        0.0407
      6 C          22.7960  -11.5020    2.5920 C.ar    1  UNL1        0.0452
      7 C          21.5440  -11.3710    3.2030 C.ar    1  UNL1        0.1964
      8 O          20.5610  -10.7840    2.4890 O.3     1  UNL1       -0.2866
      9 C          21.3690  -11.7390    4.5390 C.ar    1  UNL1        0.0512
     10 C          22.4210  -12.2270    5.3100 C.ar    1  UNL1        0.0628
     11 S          22.2320  -12.6480    6.7690 S.3     1  UNL1       -0.1029
     12 C          24.0210  -13.2200    8.8870 C.ar    1  UNL1       -0.0081
     13 C          23.5750  -12.1430    9.6730 C.ar    1  UNL1       -0.0000
     14 C          23.9280  -12.0780   11.0160 C.ar    1  UNL1        0.0417
     15 C          24.7110  -13.0990   11.6030 C.ar    1  UNL1        0.1957
     16 O          25.0320  -13.0850   12.9090 O.3     1  UNL1       -0.2866
     17 C          25.1320  -14.1930   10.8320 C.ar    1  UNL1        0.0417
     18 C          24.7770  -14.2420    9.4790 C.ar    1  UNL1       -0.0000
     19 C          25.4260  -11.4300    6.8850 C.ar    1  UNL1        0.0186
     20 C          26.7980  -11.1520    6.8720 C.ar    1  UNL1        0.0023
     21 C          27.3220   -9.8520    7.0660 C.ar    1  UNL1        0.0367
     22 C          26.4590   -8.7660    7.3000 C.ar    1  UNL1        0.1386
     23 C          25.0770   -9.0560    7.3130 C.ar    1  UNL1        0.0367
     24 C          24.5690  -10.3420    7.1050 C.ar    1  UNL1        0.0023
     25 O          26.9000   -7.4860    7.5270 O.3     1  UNL1       -0.4740
     26 C          28.2790   -7.1850    7.1940 C.3     1  UNL1        0.2211
     27 C          28.8030   -5.7320    7.5050 C.3     1  UNL1        0.1016
     28 C          28.3610   -5.6050    8.9460 C.3     1  UNL1        0.0213
     29 N          28.2150   -4.6290    6.6750 N.3     1  UNL1       -0.2708
     30 C          28.2850   -3.2180    7.2060 C.3     1  UNL1        0.0722
     31 C          27.0540   -2.4620    6.6200 C.3     1  UNL1        0.0188
     32 C          26.3280   -3.5480    5.8040 C.3     1  UNL1        0.0188
     33 C          26.7870   -4.8530    6.4740 C.3     1  UNL1        0.0722
@<TRIPOS>BOND
     1     2     1    1
     2     3     2    1
     3     4     3    1
     4     5     4   ar
     5     6     5   ar
     6     7     6   ar
     7     8     7    1
     8     9     7   ar
     9    10     9   ar
    10    10     4   ar
    11    11    10    1
    12    11     1    1
    13     1    12    1
    14    13    12   ar
    15    14    13   ar
    16    15    14   ar
    17    16    15    1
    18    17    15   ar
    19    18    17   ar
    20    18    12   ar
    21     2    19    1
    22    20    19   ar
    23    21    20   ar
    24    22    21   ar
    25    23    22   ar
    26    24    19   ar
    27    24    23   ar
    28    25    22    1
    29    26    25    1
    30    27    26    1
    31    27    28    1
    32    29    27    1
    33    30    29    1
    34    31    30    1
    35    32    31    1
    36    33    32    1
    37    33    29    1
