@<TRIPOS>MOLECULE
2QA8_GEN_A600
 20 22 0 0 0
SMALL
GASTEIGER

@<TRIPOS>ATOM
      1 C          26.9680  -11.0690    9.2100 C.ar    1  UNL1        0.0798
      2 C          26.8790  -11.7650   10.4110 C.ar    1  UNL1        0.2020
      3 O          27.8480  -11.6330   11.3420 O.3     1  UNL1       -0.2864
      4 C          25.7970  -12.5930   10.6520 C.ar    1  UNL1        0.0843
      5 C          24.7970  -12.7240    9.6880 C.ar    1  UNL1        0.2049
      6 O          23.7370  -13.5240    9.9290 O.3     1  UNL1       -0.2862
      7 C          24.8790  -12.0440    8.4750 C.ar    1  UNL1        0.1126
      8 C          23.8140  -12.1820    7.4180 C.ar    1  UNL1        0.2047
      9 O          22.8290  -12.9200    7.5780 O.2     1  UNL1       -0.2862
     10 C          23.9840  -11.4310    6.1460 C.ar    1  UNL1        0.0767
     11 C          25.1110  -10.6150    6.0290 C.ar    1  UNL1        0.1826
     12 O          26.0920  -10.5280    7.0510 O.2     1  UNL1       -0.4500
     13 C          25.9740  -11.2090    8.2420 C.ar    1  UNL1        0.1548
     14 C          23.0170  -11.4080    5.0090 C.ar    1  UNL1        0.0064
     15 C          23.5090  -11.1610    3.7340 C.ar    1  UNL1        0.0035
     16 C          22.6630  -11.0690    2.6630 C.ar    1  UNL1        0.0420
     17 C          21.2840  -11.1800    2.8290 C.ar    1  UNL1        0.1957
     18 O          20.4890  -11.0570    1.7240 O.3     1  UNL1       -0.2866
     19 C          20.7650  -11.3820    4.1130 C.ar    1  UNL1        0.0420
     20 C          21.6300  -11.4740    5.2000 C.ar    1  UNL1        0.0035
@<TRIPOS>BOND
     1     2     1   ar
     2     3     2    1
     3     4     2   ar
     4     5     4   ar
     5     6     5    1
     6     7     5   ar
     7     8     7   ar
     8     9     8    2
     9    10     8   ar
    10    11    10   ar
    11    12    11   ar
    12    13     7   ar
    13    13     1   ar
    14    13    12   ar
    15    14    10    1
    16    15    14   ar
    17    16    15   ar
    18    17    16   ar
    19    18    17    1
    20    19    17   ar
    21    20    19   ar
    22    20    14   ar
