@<TRIPOS>MOLECULE
7QN7_ABU_B501
 7 6 0 0 0
SMALL
GASTEIGER

@<TRIPOS>ATOM
      1 N         187.9050  223.9770  239.4550 N.3     1  UNL1       -0.1314
      2 C         188.1120  222.7260  240.1860 C.3     1  UNL1        0.1099
      3 C         186.9640  221.7540  240.0040 C.3     1  UNL1        0.0323
      4 C         187.1670  220.4490  240.7600 C.3     1  UNL1        0.1156
      5 C         186.0460  219.4650  240.5990 C.2     1  UNL1        0.3649
      6 O         186.2290  218.4000  241.2260 O.co2   1  UNL1       -0.2457
      7 O         185.0320  219.6910  239.9060 O.co2   1  UNL1       -0.2457
@<TRIPOS>BOND
     1     2     1    1
     2     3     2    1
     3     4     3    1
     4     5     4    1
     5     6     5   ar
     6     7     5   ar
