@<TRIPOS>MOLECULE
9CRV_ABU_A501
 7 6 0 0 0
SMALL
GASTEIGER

@<TRIPOS>ATOM
      1 N         219.8490  186.7250  244.2190 N.3     1  UNL1       -0.1314
      2 C         220.6820  187.1960  245.3310 C.3     1  UNL1        0.1099
      3 C         221.8560  187.9840  244.7740 C.3     1  UNL1        0.0323
      4 C         222.6540  188.6340  245.9020 C.3     1  UNL1        0.1156
      5 C         223.6860  189.5260  245.2650 C.2     1  UNL1        0.3649
      6 O         224.2550  190.5190  245.9520 O.co2   1  UNL1       -0.2457
      7 O         224.0040  189.3570  244.1160 O.co2   1  UNL1       -0.2457
@<TRIPOS>BOND
     1     2     1    1
     2     3     2    1
     3     4     3    1
     4     5     4    1
     5     6     5   ar
     6     7     5   ar
