@<TRIPOS>MOLECULE
8SI9_ABU_B401
 7 6 0 0 0
SMALL
GASTEIGER

@<TRIPOS>ATOM
      1 N         189.1060  224.5000  243.5630 N.3     1  UNL1       -0.1314
      2 C         188.6660  223.5940  244.6050 C.3     1  UNL1        0.1099
      3 C         188.1140  222.3260  243.9630 C.3     1  UNL1        0.0323
      4 C         187.0590  221.7320  244.8890 C.3     1  UNL1        0.1156
      5 C         186.3980  220.5450  244.2020 C.2     1  UNL1        0.3649
      6 O         187.0960  219.7440  243.5320 O.co2   1  UNL1       -0.2457
      7 O         185.1580  220.3660  244.3040 O.co2   1  UNL1       -0.2457
@<TRIPOS>BOND
     1     2     1    1
     2     3     2    1
     3     4     3    1
     4     5     4    1
     5     6     5   ar
     6     7     5   ar
