@<TRIPOS>MOLECULE
9HUM_ABU_B601
 7 6 0 0 0
SMALL
GASTEIGER

@<TRIPOS>ATOM
      1 N         235.8800  212.8820  246.1450 N.3     1  UNL1       -0.1314
      2 C         235.6200  214.2090  245.6110 C.3     1  UNL1        0.1099
      3 C         236.1000  215.2870  246.5710 C.3     1  UNL1        0.0323
      4 C         235.3390  216.5930  246.4130 C.3     1  UNL1        0.1156
      5 C         236.1640  217.8840  246.5560 C.2     1  UNL1        0.3649
      6 O         236.3480  218.5360  245.5060 O.co2   1  UNL1       -0.2457
      7 O         236.5800  218.1840  247.6900 O.co2   1  UNL1       -0.2457
@<TRIPOS>BOND
     1     2     1    1
     2     3     2    1
     3     4     3    1
     4     5     4    1
     5     6     5   ar
     6     7     5   ar
