@<TRIPOS>MOLECULE
9FFW_ABU_A501
 7 6 0 0 0
SMALL
GASTEIGER

@<TRIPOS>ATOM
      1 N         189.6670  225.1670  243.3580 N.3     1  UNL1       -0.1314
      2 C         188.7530  224.6160  244.3890 C.3     1  UNL1        0.1099
      3 C         188.2770  223.2310  244.0300 C.3     1  UNL1        0.0323
      4 C         187.3590  222.6680  245.1060 C.3     1  UNL1        0.1156
      5 C         186.8320  221.2750  244.8200 C.2     1  UNL1        0.3649
      6 O         185.8400  221.1600  244.0710 O.co2   1  UNL1       -0.2457
      7 O         187.4290  220.3130  245.3610 O.co2   1  UNL1       -0.2457
@<TRIPOS>BOND
     1     2     1    1
     2     3     2    1
     3     4     3    1
     4     5     4    1
     5     6     5   ar
     6     7     5   ar
