@<TRIPOS>MOLECULE
9FEZ_HSM_B501
 8 8 0 0 0
SMALL
GASTEIGER

@<TRIPOS>ATOM
      1 N         235.9200  212.5650  245.7740 N.3     1  UNL1       -0.1310
      2 C         236.0460  213.2110  247.1060 C.3     1  UNL1        0.1156
      3 C         235.3830  214.5700  247.1240 C.3     1  UNL1        0.0679
      4 C         236.0440  215.5680  246.2280 C.ar    1  UNL1        0.0813
      5 N         235.6420  216.8940  246.1900 N.ar    1  UNL1       -0.2268
      6 C         237.0750  215.3890  245.3560 C.ar    1  UNL1        0.1154
      7 C         236.4380  217.4720  245.3030 C.ar    1  UNL1        0.1986
      8 N         237.3130  216.6060  244.7780 N.ar    1  UNL1       -0.2212
@<TRIPOS>BOND
     1     2     1    1
     2     3     2    1
     3     4     3    1
     4     5     4   ar
     5     6     4   ar
     6     7     5   ar
     7     8     7   ar
     8     8     6   ar
