@<TRIPOS>MOLECULE
9FAM_ABU_A3902
 7 6 0 0 0
SMALL
GASTEIGER

@<TRIPOS>ATOM
      1 N         188.7590  224.5840  244.1880 N.3     1  UNL1       -0.1314
      2 C         188.9500  223.1500  244.2980 C.3     1  UNL1        0.1099
      3 C         187.5920  222.4610  244.4020 C.3     1  UNL1        0.0323
      4 C         187.7880  220.9470  244.4420 C.3     1  UNL1        0.1156
      5 C         186.4440  220.2600  244.6620 C.2     1  UNL1        0.3649
      6 O         185.3760  220.9130  244.5380 O.co2   1  UNL1       -0.2457
      7 O         186.4000  219.0400  244.9690 O.co2   1  UNL1       -0.2457
@<TRIPOS>BOND
     1     2     1    1
     2     3     2    1
     3     4     3    1
     4     5     4    1
     5     6     5   ar
     6     7     5   ar
