@<TRIPOS>MOLECULE
9FG3_ABU_D501
 7 6 0 0 0
SMALL
GASTEIGER

@<TRIPOS>ATOM
      1 N         220.2760  187.7280  243.9370 N.3     1  UNL1       -0.1314
      2 C         220.9970  188.7000  244.7960 C.3     1  UNL1        0.1099
      3 C         222.4850  188.6440  244.5670 C.3     1  UNL1        0.0323
      4 C         223.2130  189.6960  245.3910 C.3     1  UNL1        0.1156
      5 C         224.7120  189.7460  245.1670 C.2     1  UNL1        0.3649
      6 O         225.3390  190.7460  245.5730 O.co2   1  UNL1       -0.2457
      7 O         225.2380  188.7690  244.5840 O.co2   1  UNL1       -0.2457
@<TRIPOS>BOND
     1     2     1    1
     2     3     2    1
     3     4     3    1
     4     5     4    1
     5     6     5   ar
     6     7     5   ar
