@<TRIPOS>MOLECULE
7QND_EI7_E501
 10 11 0 0 0
SMALL
GASTEIGER

@<TRIPOS>ATOM
      1 N         215.6990  236.4910  243.9800 N.3     1  UNL1       -0.2096
      2 C         214.2880  237.3580  241.8310 C.ar    1  UNL1        0.0743
      3 C         216.1720  236.0020  242.6840 C.3     1  UNL1        0.0941
      4 C         214.2520  236.3180  244.1030 C.3     1  UNL1        0.1554
      5 N         212.2150  238.2990  241.7560 N.ar    1  UNL1       -0.0347
      6 C         213.4170  238.1570  240.9450 C.ar    1  UNL1        0.3121
      7 O         213.6710  238.5800  239.8190 O.2     1  UNL1       -0.2623
      8 C         213.6500  237.0960  242.9820 C.ar    1  UNL1        0.1712
      9 C         215.6860  236.8820  241.5420 C.3     1  UNL1        0.0531
     10 O         212.4020  237.6400  242.9810 O.2     1  UNL1       -0.3536
@<TRIPOS>BOND
     1     3     1    1
     2     4     1    1
     3     6     5   ar
     4     6     2   ar
     5     7     6    2
     6     8     4    1
     7     8     2   ar
     8     9     3    1
     9     9     2    1
    10    10     5   ar
    11    10     8   ar
