@<TRIPOS>MOLECULE
9FEU_HSM_E501
 8 8 0 0 0
SMALL
GASTEIGER

@<TRIPOS>ATOM
      1 N         190.7710  194.7540  245.2070 N.3     1  UNL1       -0.1310
      2 C         191.2050  193.4190  244.7250 C.3     1  UNL1        0.1156
      3 C         192.6860  193.3990  244.4220 C.3     1  UNL1        0.0679
      4 C         193.1610  192.0900  243.8750 C.ar    1  UNL1        0.0813
      5 N         194.0370  191.2790  244.5770 N.ar    1  UNL1       -0.2268
      6 C         192.8560  191.4960  242.6880 C.ar    1  UNL1        0.1154
      7 C         194.2340  190.2250  243.7990 C.ar    1  UNL1        0.1986
      8 N         193.5450  190.3140  242.6540 N.ar    1  UNL1       -0.2212
@<TRIPOS>BOND
     1     2     1    1
     2     3     2    1
     3     4     3    1
     4     5     4   ar
     5     6     4   ar
     6     7     5   ar
     7     8     7   ar
     8     8     6   ar
