@<TRIPOS>MOLECULE
9FAJ_ABU_A3907
 7 6 0 0 0
SMALL
GASTEIGER

@<TRIPOS>ATOM
      1 N         188.8190  224.7960  243.8180 N.3     1  UNL1       -0.1314
      2 C         189.0360  223.3710  243.9870 C.3     1  UNL1        0.1099
      3 C         187.7020  222.6590  244.1890 C.3     1  UNL1        0.0323
      4 C         187.9600  221.1800  244.4660 C.3     1  UNL1        0.1156
      5 C         186.6350  220.4330  244.5920 C.2     1  UNL1        0.3649
      6 O         185.5570  220.9990  244.2740 O.co2   1  UNL1       -0.2457
      7 O         186.6210  219.2480  245.0140 O.co2   1  UNL1       -0.2457
@<TRIPOS>BOND
     1     2     1    1
     2     3     2    1
     3     4     3    1
     4     5     4    1
     5     6     5   ar
     6     7     5   ar
