@<TRIPOS>MOLECULE
6HUO_ABU_A501
 7 6 0 0 0
SMALL
GASTEIGER

@<TRIPOS>ATOM
      1 N         189.1510  224.8870  243.5060 N.3     1  UNL1       -0.1314
      2 C         189.0820  223.5950  244.1940 C.3     1  UNL1        0.1099
      3 C         187.7430  222.9000  244.0320 C.3     1  UNL1        0.0323
      4 C         187.6830  221.5590  244.7510 C.3     1  UNL1        0.1156
      5 C         186.3740  220.8380  244.6180 C.2     1  UNL1        0.3649
      6 O         185.4060  221.2930  243.9750 O.co2   1  UNL1       -0.2457
      7 O         186.3500  219.7420  245.2140 O.co2   1  UNL1       -0.2457
@<TRIPOS>BOND
     1     2     1    1
     2     3     2    1
     3     4     3    1
     4     5     4    1
     5     6     5   ar
     6     7     5   ar
