@<TRIPOS>MOLECULE
7PBZ_HSM_C601
 8 8 0 0 0
SMALL
GASTEIGER

@<TRIPOS>ATOM
      1 N         219.4910  187.7100  245.1340 N.3     1  UNL1       -0.1310
      2 C         220.7910  187.8770  244.5120 C.3     1  UNL1        0.1156
      3 C         221.8740  187.8220  245.5880 C.3     1  UNL1        0.0679
      4 C         223.2700  187.8620  244.9670 C.ar    1  UNL1        0.0813
      5 N         224.3970  187.6920  245.6190 N.ar    1  UNL1       -0.2268
      6 C         223.5770  188.0750  243.6580 C.ar    1  UNL1        0.1154
      7 C         225.4090  187.7930  244.7430 C.ar    1  UNL1        0.1986
      8 N         224.8850  188.0320  243.5340 N.ar    1  UNL1       -0.2212
@<TRIPOS>BOND
     1     2     1    1
     2     3     2    1
     3     4     3    1
     4     5     4   ar
     5     6     4   ar
     6     7     5   ar
     7     8     7   ar
     8     8     6   ar
