@<TRIPOS>MOLECULE
9HAA_BUA_B601
 6 5 0 0 0
SMALL
GASTEIGER

@<TRIPOS>ATOM
      1 C         192.3400  194.6190  244.7600 C.3     1  UNL1        0.0006
      2 C         192.9940  193.2490  244.6540 C.3     1  UNL1        0.0118
      3 C         192.5080  192.3110  245.7440 C.3     1  UNL1        0.1141
      4 C         193.1600  190.9190  245.7780 C.2     1  UNL1        0.3649
      5 O         193.7170  190.5070  244.7420 O.co2   1  UNL1       -0.2457
      6 O         193.0770  190.3050  246.8630 O.co2   1  UNL1       -0.2457
@<TRIPOS>BOND
     1     2     1    1
     2     3     2    1
     3     4     3    1
     4     5     4   ar
     5     6     4   ar
