@<TRIPOS>MOLECULE
8VRN_ABU_A401
 7 6 0 0 0
SMALL
GASTEIGER

@<TRIPOS>ATOM
      1 N         189.8930  224.9240  243.5310 N.3     1  UNL1       -0.1314
      2 C         188.6000  224.4520  243.9650 C.3     1  UNL1        0.1099
      3 C         188.6440  222.9470  244.1740 C.3     1  UNL1        0.0323
      4 C         187.2120  222.4760  244.3630 C.3     1  UNL1        0.1156
      5 C         187.1680  220.9560  244.3740 C.2     1  UNL1        0.3649
      6 O         186.0790  220.3530  244.5040 O.co2   1  UNL1       -0.2457
      7 O         188.2300  220.3090  244.2430 O.co2   1  UNL1       -0.2457
@<TRIPOS>BOND
     1     2     1    1
     2     3     2    1
     3     4     3    1
     4     5     4    1
     5     6     5   ar
     6     7     5   ar
