@<TRIPOS>MOLECULE
8SGO_ABU_C402
 7 6 0 0 0
SMALL
GASTEIGER

@<TRIPOS>ATOM
      1 N         220.4870  187.7870  243.9360 N.3     1  UNL1       -0.1314
      2 C         221.1780  188.6010  244.9130 C.3     1  UNL1        0.1099
      3 C         222.4970  189.0870  244.3290 C.3     1  UNL1        0.0323
      4 C         223.4060  189.5170  245.4740 C.3     1  UNL1        0.1156
      5 C         224.8010  189.8120  244.9370 C.2     1  UNL1        0.3649
      6 O         224.9650  190.6940  244.0630 O.co2   1  UNL1       -0.2457
      7 O         225.7900  189.1680  245.3590 O.co2   1  UNL1       -0.2457
@<TRIPOS>BOND
     1     2     1    1
     2     3     2    1
     3     4     3    1
     4     5     4    1
     5     6     5   ar
     6     7     5   ar
