@<TRIPOS>MOLECULE
9HNT_ABU_E602
 7 6 0 0 0
SMALL
GASTEIGER

@<TRIPOS>ATOM
      1 N         188.9370  223.2480  242.9200 N.3     1  UNL1       -0.1314
      2 C         189.0890  222.8200  244.3040 C.3     1  UNL1        0.1099
      3 C         188.3620  221.5070  244.5570 C.3     1  UNL1        0.0323
      4 C         186.8660  221.6470  244.3410 C.3     1  UNL1        0.1156
      5 C         185.9850  220.4650  244.7810 C.2     1  UNL1        0.3649
      6 O         185.4440  219.8130  243.8620 O.co2   1  UNL1       -0.2457
      7 O         185.8690  220.2520  246.0030 O.co2   1  UNL1       -0.2457
@<TRIPOS>BOND
     1     2     1    1
     2     3     2    1
     3     4     3    1
     4     5     4    1
     5     6     5   ar
     6     7     5   ar
