@<TRIPOS>MOLECULE
9HNS_ABU_B601
 7 6 0 0 0
SMALL
GASTEIGER

@<TRIPOS>ATOM
      1 N         235.6980  212.6280  246.0580 N.3     1  UNL1       -0.1314
      2 C         235.0000  213.8550  245.7040 C.3     1  UNL1        0.1099
      3 C         235.5680  215.0470  246.4590 C.3     1  UNL1        0.0323
      4 C         234.9050  216.3520  246.0520 C.3     1  UNL1        0.1156
      5 C         235.6660  217.6390  246.4150 C.2     1  UNL1        0.3649
      6 O         236.1090  217.7460  247.5750 O.co2   1  UNL1       -0.2457
      7 O         235.7780  218.4840  245.5020 O.co2   1  UNL1       -0.2457
@<TRIPOS>BOND
     1     2     1    1
     2     3     2    1
     3     4     3    1
     4     5     4    1
     5     6     5   ar
     6     7     5   ar
