@<TRIPOS>MOLECULE
9FGH_ABU_B1601
 7 6 0 0 0
SMALL
GASTEIGER

@<TRIPOS>ATOM
      1 N         188.9450  224.7090  244.2060 N.3     1  UNL1       -0.1314
      2 C         188.9700  223.2510  244.3210 C.3     1  UNL1        0.1099
      3 C         187.5780  222.6540  244.3400 C.3     1  UNL1        0.0323
      4 C         187.5860  221.1390  244.4590 C.3     1  UNL1        0.1156
      5 C         186.2190  220.5210  244.4760 C.2     1  UNL1        0.3649
      6 O         186.2410  219.2790  244.5740 O.co2   1  UNL1       -0.2457
      7 O         185.1670  221.1870  244.4020 O.co2   1  UNL1       -0.2457
@<TRIPOS>BOND
     1     2     1    1
     2     3     2    1
     3     4     3    1
     4     5     4    1
     5     6     5   ar
     6     7     5   ar
