@<TRIPOS>MOLECULE
7A5V_HSM_A5408
 8 8 0 0 0
SMALL
GASTEIGER

@<TRIPOS>ATOM
      1 N         189.5490  224.8460  244.2010 N.3     1  UNL1       -0.1310
      2 C         188.3780  224.1140  243.7520 C.3     1  UNL1        0.1156
      3 C         188.7330  222.8010  243.1700 C.3     1  UNL1        0.0679
      4 C         187.6030  222.1680  242.4190 C.ar    1  UNL1        0.0813
      5 N         186.7810  221.2490  243.0300 N.ar    1  UNL1       -0.2268
      6 C         187.3890  222.1290  241.0830 C.ar    1  UNL1        0.1154
      7 C         186.0290  220.7560  242.0710 C.ar    1  UNL1        0.1986
      8 N         186.3940  221.2200  240.8820 N.ar    1  UNL1       -0.2212
@<TRIPOS>BOND
     1     2     1    1
     2     3     2    1
     3     4     3    1
     4     5     4   ar
     5     6     4   ar
     6     7     5   ar
     7     8     7   ar
     8     8     6   ar
