@<TRIPOS>MOLECULE
9FGG_ABU_B1601
 7 6 0 0 0
SMALL
GASTEIGER

@<TRIPOS>ATOM
      1 N         189.1410  225.0170  243.4710 N.3     1  UNL1       -0.1314
      2 C         189.1870  223.7160  244.1210 C.3     1  UNL1        0.1099
      3 C         187.9460  222.8880  243.8600 C.3     1  UNL1        0.0323
      4 C         187.9910  221.5300  244.5420 C.3     1  UNL1        0.1156
      5 C         186.7800  220.6790  244.3030 C.2     1  UNL1        0.3649
      6 O         185.8150  221.0470  243.6050 O.co2   1  UNL1       -0.2457
      7 O         186.8340  219.5720  244.8720 O.co2   1  UNL1       -0.2457
@<TRIPOS>BOND
     1     2     1    1
     2     3     2    1
     3     4     3    1
     4     5     4    1
     5     6     5   ar
     6     7     5   ar
