@<TRIPOS>MOLECULE
9DRX_ABU_A402
 7 6 0 0 0
SMALL
GASTEIGER

@<TRIPOS>ATOM
      1 N         188.8450  225.0580  244.4650 N.3     1  UNL1       -0.1314
      2 C         189.2430  223.6310  244.4020 C.3     1  UNL1        0.1099
      3 C         188.0420  222.7280  244.3240 C.3     1  UNL1        0.0323
      4 C         188.4170  221.2800  244.6050 C.3     1  UNL1        0.1156
      5 C         187.2170  220.3710  244.7770 C.2     1  UNL1        0.3649
      6 O         187.4370  219.2050  245.1800 O.co2   1  UNL1       -0.2457
      7 O         186.0880  220.8310  244.5250 O.co2   1  UNL1       -0.2457
@<TRIPOS>BOND
     1     2     1    1
     2     3     2    1
     3     4     3    1
     4     5     4    1
     5     6     5   ar
     6     7     5   ar
