@<TRIPOS>MOLECULE
7QNB_ABU_B501
 7 6 0 0 0
SMALL
GASTEIGER

@<TRIPOS>ATOM
      1 N         219.1340  186.2470  242.9450 N.3     1  UNL1       -0.1314
      2 C         219.8100  187.1960  243.8330 C.3     1  UNL1        0.1099
      3 C         221.3210  187.0710  243.7720 C.3     1  UNL1        0.0323
      4 C         222.0330  188.0530  244.6920 C.3     1  UNL1        0.1156
      5 C         223.5300  187.9550  244.6550 C.2     1  UNL1        0.3649
      6 O         224.0980  188.7670  245.4160 O.co2   1  UNL1       -0.2457
      7 O         224.1450  187.1410  243.9340 O.co2   1  UNL1       -0.2457
@<TRIPOS>BOND
     1     2     1    1
     2     3     2    1
     3     4     3    1
     4     5     4    1
     5     6     5   ar
     6     7     5   ar
