@<TRIPOS>MOLECULE
9FG5_ABU_C501
 7 6 0 0 0
SMALL
GASTEIGER

@<TRIPOS>ATOM
      1 N         189.5070  224.9360  243.6480 N.3     1  UNL1       -0.1314
      2 C         189.2160  224.0280  244.7850 C.3     1  UNL1        0.1099
      3 C         187.9240  223.2850  244.5690 C.3     1  UNL1        0.0323
      4 C         187.6640  222.2930  245.6930 C.3     1  UNL1        0.1156
      5 C         186.3730  221.5110  245.5480 C.2     1  UNL1        0.3649
      6 O         185.3810  222.0920  245.0610 O.co2   1  UNL1       -0.2457
      7 O         186.3780  220.3180  245.9320 O.co2   1  UNL1       -0.2457
@<TRIPOS>BOND
     1     2     1    1
     2     3     2    1
     3     4     3    1
     4     5     4    1
     5     6     5   ar
     6     7     5   ar
