@<TRIPOS>MOLECULE
9CX7_ABU_A501
 7 6 0 0 0
SMALL
GASTEIGER

@<TRIPOS>ATOM
      1 N         188.3140  224.6560  244.0780 N.3     1  UNL1       -0.1314
      2 C         188.4120  223.3820  244.8320 C.3     1  UNL1        0.1099
      3 C         187.2410  222.4780  244.5420 C.3     1  UNL1        0.0323
      4 C         187.3550  221.1630  245.3000 C.3     1  UNL1        0.1156
      5 C         186.2000  220.2090  245.0640 C.2     1  UNL1        0.3649
      6 O         186.4840  219.0130  244.8090 O.co2   1  UNL1       -0.2457
      7 O         185.0380  220.6590  245.1340 O.co2   1  UNL1       -0.2457
@<TRIPOS>BOND
     1     2     1    1
     2     3     2    1
     3     4     3    1
     4     5     4    1
     5     6     5   ar
     6     7     5   ar
