@<TRIPOS>MOLECULE
8SID_ABU_C402
 7 6 0 0 0
SMALL
GASTEIGER

@<TRIPOS>ATOM
      1 N         220.1810  187.9540  243.9240 N.3     1  UNL1       -0.1314
      2 C         220.9520  188.6800  244.9110 C.3     1  UNL1        0.1099
      3 C         222.2450  189.1740  244.2740 C.3     1  UNL1        0.0323
      4 C         223.2360  189.5010  245.3830 C.3     1  UNL1        0.1156
      5 C         224.5970  189.7980  244.7690 C.2     1  UNL1        0.3649
      6 O         225.5940  189.1010  245.0780 O.co2   1  UNL1       -0.2457
      7 O         224.7250  190.7350  243.9480 O.co2   1  UNL1       -0.2457
@<TRIPOS>BOND
     1     2     1    1
     2     3     2    1
     3     4     3    1
     4     5     4    1
     5     6     5   ar
     6     7     5   ar
