@<TRIPOS>MOLECULE
9FG1_ABU_B501
 7 6 0 0 0
SMALL
GASTEIGER

@<TRIPOS>ATOM
      1 N         189.4460  224.9320  243.0040 N.3     1  UNL1       -0.1314
      2 C         189.1980  223.8470  243.9850 C.3     1  UNL1        0.1099
      3 C         187.9610  223.0580  243.6470 C.3     1  UNL1        0.0323
      4 C         187.7770  221.8800  244.5910 C.3     1  UNL1        0.1156
      5 C         186.5590  221.0280  244.2950 C.2     1  UNL1        0.3649
      6 O         185.4500  221.5920  244.2080 O.co2   1  UNL1       -0.2457
      7 O         186.7390  219.7960  244.1580 O.co2   1  UNL1       -0.2457
@<TRIPOS>BOND
     1     2     1    1
     2     3     2    1
     3     4     3    1
     4     5     4    1
     5     6     5   ar
     6     7     5   ar
