@<TRIPOS>MOLECULE
9FF1_HSM_D501
 8 8 0 0 0
SMALL
GASTEIGER

@<TRIPOS>ATOM
      1 N         215.7650  235.4210  245.3270 N.3     1  UNL1       -0.1310
      2 C         215.1810  236.1530  246.4800 C.3     1  UNL1        0.1156
      3 C         213.6710  236.0780  246.4710 C.3     1  UNL1        0.0679
      4 C         213.0400  236.8550  245.3590 C.ar    1  UNL1        0.0813
      5 N         211.9330  237.6620  245.5680 N.ar    1  UNL1       -0.2268
      6 C         213.3920  236.9120  244.0440 C.ar    1  UNL1        0.1154
      7 C         211.6510  238.1790  244.3810 C.ar    1  UNL1        0.1986
      8 N         212.5020  237.7560  243.4380 N.ar    1  UNL1       -0.2212
@<TRIPOS>BOND
     1     2     1    1
     2     3     2    1
     3     4     3    1
     4     5     4   ar
     5     6     4   ar
     6     7     5   ar
     7     8     7   ar
     8     8     6   ar
