@<TRIPOS>MOLECULE
1HXB_ROC_A100
 49 53 0 0 0
SMALL
GASTEIGER

@<TRIPOS>ATOM
      1 C         -12.7480   14.8060   32.8680 C.2     1  UNL1        0.2829
      2 O         -13.1640   15.8840   33.3030 O.2     1  UNL1       -0.2667
      3 N         -12.8060   12.4700   32.5040 N.ar    1  UNL1       -0.2407
      4 C         -13.4610   13.6030   32.8680 C.ar    1  UNL1        0.1361
      5 C         -14.8300   13.5420   33.1540 C.ar    1  UNL1        0.0238
      6 C         -15.4920   12.3180   33.0450 C.ar    1  UNL1        0.0032
      7 C         -15.4110    9.9470   32.5320 C.ar    1  UNL1        0.0015
      8 C         -14.6610    8.8320   32.1350 C.ar    1  UNL1        0.0001
      9 C         -13.2920    8.9410   31.8650 C.ar    1  UNL1        0.0015
     10 C         -12.6560   10.1720   31.9890 C.ar    1  UNL1        0.0191
     11 C         -14.7750   11.1820   32.6580 C.ar    1  UNL1        0.0177
     12 C         -13.4030   11.2780   32.3860 C.ar    1  UNL1        0.0814
     13 N         -11.5310   14.6440   32.3410 N.am    1  UNL1       -0.1922
     14 C         -10.6200   15.7400   32.0880 C.3     1  UNL1        0.1822
     15 C         -10.2030   15.8090   30.6280 C.2     1  UNL1        0.2618
     16 O          -9.1380   15.3640   30.1820 O.2     1  UNL1       -0.2715
     17 C          -9.4010   15.5980   32.9480 C.3     1  UNL1        0.1195
     18 C          -9.8390   15.8170   34.3750 C.2     1  UNL1        0.2630
     19 O         -10.5260   16.7690   34.7130 O.2     1  UNL1       -0.2716
     20 N          -9.5610   14.9470   35.3130 N.am    1  UNL1       -0.0877
     21 C         -10.3280   17.9990   28.2010 C.3     1  UNL1        0.1879
     22 O         -11.4860   18.8200   28.2790 O.3     1  UNL1       -0.2198
     23 C         -10.7960   16.5430   28.4050 C.3     1  UNL1        0.1313
     24 N         -11.0960   16.3800   29.8180 N.am    1  UNL1       -0.2027
     25 C         -12.0550   16.1960   27.5930 C.3     1  UNL1        0.0506
     26 C         -12.6890   14.9090   28.0630 C.ar    1  UNL1       -0.0204
     27 C         -12.0700   13.6950   27.7870 C.ar    1  UNL1       -0.0042
     28 C         -13.8650   14.9660   28.8100 C.ar    1  UNL1       -0.0042
     29 C         -12.6410   12.5200   28.2660 C.ar    1  UNL1       -0.0003
     30 C         -14.4190   13.7910   29.2790 C.ar    1  UNL1       -0.0003
     31 C         -13.8070   12.5700   29.0110 C.ar    1  UNL1       -0.0000
     32 N          -8.1630   17.8990   26.9740 N.3     1  UNL1       -0.2643
     33 C          -9.5690   18.2930   26.9030 C.3     1  UNL1        0.1075
     34 C          -7.5660   17.6280   25.6560 C.3     1  UNL1        0.1365
     35 C          -8.1940   16.5200   24.8220 C.2     1  UNL1        0.2558
     36 O          -8.3680   15.4090   25.3230 O.2     1  UNL1       -0.2719
     37 C          -6.0900   17.2750   25.8030 C.3     1  UNL1        0.0254
     38 C          -5.3320   18.3980   26.4670 C.3     1  UNL1        0.0032
     39 C          -3.8860   17.9800   26.6460 C.3     1  UNL1        0.0001
     40 C          -3.7000   16.9430   27.7450 C.3     1  UNL1        0.0000
     41 C          -4.2440   17.4480   29.0670 C.3     1  UNL1        0.0000
     42 C          -5.7310   17.6520   28.8790 C.3     1  UNL1        0.0014
     43 C          -5.9870   18.7440   27.8540 C.3     1  UNL1        0.0161
     44 C          -7.4730   18.9910   27.6520 C.3     1  UNL1        0.0725
     45 N          -8.4900   16.9010   23.5780 N.am    1  UNL1       -0.2077
     46 C          -9.1420   16.0780   22.5780 C.3     1  UNL1        0.0788
     47 C          -9.2770   16.9460   21.3540 C.3     1  UNL1        0.0217
     48 C          -8.2800   14.9040   22.1940 C.3     1  UNL1        0.0217
     49 C         -10.5330   15.6220   23.0230 C.3     1  UNL1        0.0217
@<TRIPOS>BOND
     1     2     1    2
     2     4     3   ar
     3     4     1    1
     4     5     4   ar
     5     6     5   ar
     6     8     7   ar
     7     9     8   ar
     8    10     9   ar
     9    11     7   ar
    10    11     6   ar
    11    12    10   ar
    12    12    11   ar
    13    12     3   ar
    14    13     1   am
    15    14    13    1
    16    15    14    1
    17    16    15    2
    18    14    17    1
    19    18    17    1
    20    19    18    2
    21    20    18   am
    22    21    22    1
    23    23    21    1
    24    24    15   am
    25    24    23    1
    26    23    25    1
    27    26    25    1
    28    27    26   ar
    29    28    26   ar
    30    29    27   ar
    31    30    28   ar
    32    31    30   ar
    33    31    29   ar
    34    33    32    1
    35    33    21    1
    36    34    32    1
    37    34    35    1
    38    36    35    2
    39    37    34    1
    40    38    37    1
    41    39    38    1
    42    40    39    1
    43    41    40    1
    44    42    41    1
    45    43    42    1
    46    43    38    1
    47    44    32    1
    48    44    43    1
    49    45    35   am
    50    46    45    1
    51    46    47    1
    52    48    46    1
    53    49    46    1
