@<TRIPOS>MOLECULE
4Q1X_017_A101
 38 41 0 0 0
SMALL
GASTEIGER

@<TRIPOS>ATOM
      1 N         -10.3720   16.6350   36.0660 N.pl3   1  UNL1       -0.1281
      2 C         -10.1050   16.3640   34.7640 C.ar    1  UNL1        0.0892
      3 C         -10.5540   15.1910   34.1430 C.ar    1  UNL1        0.0194
      4 C         -10.2460   14.9590   32.8000 C.ar    1  UNL1        0.0213
      5 C          -9.4870   15.8760   32.0650 C.ar    1  UNL1        0.1223
      6 C          -9.0400   17.0290   32.6990 C.ar    1  UNL1        0.0213
      7 C          -9.3340   17.2660   34.0410 C.ar    1  UNL1        0.0194
      8 S          -9.1190   15.6800   30.5040 S.O2    1  UNL1        0.0634
      9 O          -7.9470   16.4660   30.2160 O.2     1  UNL1       -0.1528
     10 O          -8.9070   14.3100   30.1740 O.2     1  UNL1       -0.1528
     11 N         -10.3330   16.1690   29.5510 N.3     1  UNL1       -0.1529
     12 C         -11.6390   15.5520   29.9000 C.3     1  UNL1        0.0958
     13 C         -12.5260   15.3950   28.6630 C.3     1  UNL1        0.0178
     14 C         -11.8520   14.5700   27.5580 C.3     1  UNL1        0.0015
     15 C         -13.8630   14.7740   29.0650 C.3     1  UNL1        0.0015
     16 C         -10.4200   17.6260   29.3970 C.3     1  UNL1        0.1304
     17 C         -10.2340   18.0170   27.9310 C.3     1  UNL1        0.1898
     18 O         -10.6200   19.4040   27.7730 O.3     1  UNL1       -0.2197
     19 C          -8.8180   17.7480   27.4310 C.3     1  UNL1        0.1347
     20 N          -8.8680   17.8100   25.9780 N.am    1  UNL1       -0.1675
     21 C          -8.7260   16.7690   25.1630 C.2     1  UNL1        0.4211
     22 O          -8.5410   15.6040   25.4820 O.2     1  UNL1       -0.2246
     23 O          -8.8140   17.1640   23.7820 O.3     1  UNL1       -0.4345
     24 C          -8.4380   16.3010   22.7130 C.3     1  UNL1        0.2048
     25 C          -9.4020   16.5930   21.5800 C.3     1  UNL1        0.1884
     26 O          -8.8710   17.7560   20.9360 O.3     1  UNL1       -0.3265
     27 C          -7.4480   17.7450   21.1110 C.3     1  UNL1        0.2388
     28 O          -6.9510   18.9820   21.6100 O.3     1  UNL1       -0.3304
     29 C          -6.4000   18.8150   22.9250 C.3     1  UNL1        0.1451
     30 C          -6.0860   17.3340   23.0780 C.3     1  UNL1        0.0409
     31 C          -7.0890   16.6770   22.1300 C.3     1  UNL1        0.1016
     32 C          -7.7380   18.7130   27.9470 C.3     1  UNL1        0.0508
     33 C          -5.8170   19.2870   26.4200 C.ar    1  UNL1       -0.0042
     34 C          -4.5870   19.0360   25.8290 C.ar    1  UNL1       -0.0003
     35 C          -3.9020   17.8820   26.1550 C.ar    1  UNL1       -0.0000
     36 C          -4.4500   16.9980   27.0730 C.ar    1  UNL1       -0.0003
     37 C          -5.6880   17.2450   27.6640 C.ar    1  UNL1       -0.0042
     38 C          -6.3850   18.4010   27.3350 C.ar    1  UNL1       -0.0204
@<TRIPOS>BOND
     1     2     1    1
     2     3     2   ar
     3     4     3   ar
     4     5     4   ar
     5     6     5   ar
     6     7     6   ar
     7     7     2   ar
     8     8     5    1
     9     9     8    2
    10    10     8    2
    11     8    11    1
    12    12    11    1
    13    13    12    1
    14    13    14    1
    15    15    13    1
    16    16    11    1
    17    17    16    1
    18    17    18    1
    19    19    17    1
    20    20    19    1
    21    21    20   am
    22    22    21    2
    23    23    21    1
    24    24    23    1
    25    25    24    1
    26    26    25    1
    27    27    26    1
    28    28    27    1
    29    29    28    1
    30    30    29    1
    31    31    24    1
    32    31    27    1
    33    31    30    1
    34    19    32    1
    35    34    33   ar
    36    35    34   ar
    37    36    35   ar
    38    37    36   ar
    39    38    33   ar
    40    38    37   ar
    41    38    32    1
