@<TRIPOS>MOLECULE
6DIF_TPV_B201
 42 45 0 0 0
SMALL
GASTEIGER

@<TRIPOS>ATOM
      1 O          -8.0510   15.9380   26.8200 O.3     1  UNL1       -0.4524
      2 C          -8.8020   15.4260   27.8110 C.2     1  UNL1        0.3401
      3 C          -9.8620   16.1340   28.4240 C.2     1  UNL1        0.0918
      4 C         -10.0030   17.4400   27.9640 C.2     1  UNL1        0.1791
      5 C          -9.1210   18.0660   27.0580 C.3     1  UNL1        0.1090
      6 C          -8.4200   17.1120   26.1040 C.3     1  UNL1        0.1438
      7 O          -8.4460   14.2630   28.1390 O.2     1  UNL1       -0.2451
      8 O         -11.0030   18.2190   28.4880 O.2     1  UNL1       -0.2913
      9 C          -9.4860   16.7820   25.0320 C.3     1  UNL1        0.0406
     10 C          -9.0340   15.8980   23.8830 C.3     1  UNL1        0.0036
     11 C         -10.2420   15.6710   22.9310 C.3     1  UNL1        0.0001
     12 C          -7.1520   17.6630   25.4670 C.3     1  UNL1        0.0452
     13 C          -6.0090   18.0150   26.3990 C.3     1  UNL1        0.0299
     14 C          -4.9100   18.5700   25.7310 C.ar    1  UNL1       -0.0221
     15 C          -3.8000   17.7750   25.4640 C.ar    1  UNL1       -0.0043
     16 C          -2.7140   18.2650   24.7800 C.ar    1  UNL1       -0.0003
     17 C          -2.7300   19.5990   24.3580 C.ar    1  UNL1       -0.0000
     18 C          -3.8230   20.4220   24.6300 C.ar    1  UNL1       -0.0003
     19 C          -4.9190   19.9110   25.3160 C.ar    1  UNL1       -0.0043
     20 C         -10.5990   15.5090   29.4880 C.3     1  UNL1        0.0538
     21 C         -12.1020   15.6850   29.4100 C.3     1  UNL1        0.0090
     22 C         -12.7570   15.2400   28.1100 C.3     1  UNL1        0.0007
     23 C         -10.1640   15.7290   30.7920 C.ar    1  UNL1       -0.0168
     24 C          -9.3830   16.8260   31.1260 C.ar    1  UNL1       -0.0039
     25 C          -8.9400   17.0590   32.4460 C.ar    1  UNL1        0.0011
     26 C          -9.2500   16.2030   33.4900 C.ar    1  UNL1        0.0180
     27 C         -10.0440   15.0810   33.2010 C.ar    1  UNL1        0.0908
     28 N         -10.3310   14.1860   34.2210 N.pl3   1  UNL1       -0.0952
     29 C         -10.4660   14.8920   31.9010 C.ar    1  UNL1        0.0141
     30 S         -11.6160   14.4840   35.1470 S.O2    1  UNL1        0.1095
     31 O         -11.6310   13.4230   36.2160 O.2     1  UNL1       -0.1468
     32 O         -11.5370   15.9190   35.6690 O.2     1  UNL1       -0.1468
     33 C         -13.0510   14.2980   34.0940 C.ar    1  UNL1        0.2078
     34 N         -13.6220   15.3730   33.5190 N.ar    1  UNL1       -0.2242
     35 C         -14.5890   15.2120   32.5280 C.ar    1  UNL1        0.1043
     36 C         -14.9980   13.9240   32.1350 C.ar    1  UNL1        0.0906
     37 C         -14.4240   12.8470   32.7950 C.ar    1  UNL1        0.0084
     38 C         -13.4540   13.0150   33.7880 C.ar    1  UNL1        0.0398
     39 C         -15.9370   13.7180   31.1470 C.3     1  UNL1        0.4200
     40 F         -16.8630   14.6810   31.0480 F       1  UNL1       -0.1658
     41 F         -16.5890   12.5820   31.0670 F       1  UNL1       -0.1658
     42 F         -15.3360   13.7810   29.9290 F       1  UNL1       -0.1658
@<TRIPOS>BOND
     1     2     1    1
     2     3     2    1
     3     4     3    2
     4     5     4    1
     5     6     1    1
     6     6     5    1
     7     7     2    2
     8     8     4    1
     9     6     9    1
    10    10     9    1
    11    11    10    1
    12    12     6    1
    13    13    12    1
    14    14    13    1
    15    15    14   ar
    16    16    15   ar
    17    17    16   ar
    18    18    17   ar
    19    19    18   ar
    20    19    14   ar
    21    20     3    1
    22    20    21    1
    23    22    21    1
    24    23    20    1
    25    24    23   ar
    26    25    24   ar
    27    26    25   ar
    28    27    26   ar
    29    28    27    1
    30    29    23   ar
    31    29    27   ar
    32    30    28    1
    33    31    30    2
    34    32    30    2
    35    33    30    1
    36    34    33   ar
    37    35    34   ar
    38    36    35   ar
    39    37    36   ar
    40    38    37   ar
    41    38    33   ar
    42    39    36    1
    43    39    40    1
    44    41    39    1
    45    42    39    1
