@<TRIPOS>MOLECULE
1BVG_DMP_B100
 80 84 0 0 0
SMALL
GASTEIGER

@<TRIPOS>ATOM
      1  C1        -8.6500   14.9890   27.8650 C.2   100  DMP100      0.3060
      2  C3       -10.7070   16.0880   28.8080 C.3   100  DMP100      0.0601
      3  C4       -10.4410   17.5750   28.5690 C.3   100  DMP100      0.1016
      4  C5        -9.8650   17.9020   27.2120 C.3   100  DMP100      0.1016
      5  C6        -8.4730   17.3280   26.9530 C.3   100  DMP100      0.0601
      6  C20       -9.3320   14.3530   30.0300 C.3   100  DMP100      0.0416
      7  C21       -9.4760   14.9870   31.3540 C.ar  100  DMP100     -0.0300
      8  C22       -9.8780   14.2410   32.4490 C.ar  100  DMP100     -0.0567
      9  C23      -10.0120   14.8460   33.6880 C.ar  100  DMP100     -0.0561
     10  C24       -9.7440   16.1980   33.8290 C.ar  100  DMP100     -0.0222
     11  C25       -9.3440   16.9410   32.7370 C.ar  100  DMP100     -0.0561
     12  C26       -9.2100   16.3380   31.5000 C.ar  100  DMP100     -0.0567
     13  C27       -9.8880   16.8600   35.1670 C.3   100  DMP100      0.0692
     14  C30      -11.7110   15.3950   27.8890 C.3   100  DMP100     -0.0064
     15  C31      -12.3930   14.2420   28.5770 C.ar  100  DMP100     -0.0455
     16  C32      -12.4900   13.0280   27.9220 C.ar  100  DMP100     -0.0585
     17  C33      -13.0960   11.9550   28.5380 C.ar  100  DMP100     -0.0615
     18  C34      -13.6090   12.0920   29.8130 C.ar  100  DMP100     -0.0617
     19  C35      -13.5160   13.3060   30.4740 C.ar  100  DMP100     -0.0615
     20  C36      -12.9040   14.3830   29.8550 C.ar  100  DMP100     -0.0585
     21  C60       -7.3400   17.7900   27.8650 C.3   100  DMP100     -0.0064
     22  C61       -6.0070   17.7520   27.1630 C.ar  100  DMP100     -0.0455
     23  C62       -4.9310   17.1550   27.7910 C.ar  100  DMP100     -0.0585
     24  C63       -3.7070   17.0930   27.1620 C.ar  100  DMP100     -0.0615
     25  C64       -3.5530   17.6320   25.9010 C.ar  100  DMP100     -0.0617
     26  C65       -4.6270   18.2360   25.2670 C.ar  100  DMP100     -0.0615
     27  C66       -5.8580   18.2940   25.8990 C.ar  100  DMP100     -0.0585
     28  C70       -7.7720   15.2470   25.6960 C.3   100  DMP100      0.0416
     29  C71       -8.2500   15.7240   24.3850 C.ar  100  DMP100     -0.0300
     30  C72       -7.4190   15.6860   23.2770 C.ar  100  DMP100     -0.0567
     31  C73       -7.8830   16.1330   22.0500 C.ar  100  DMP100     -0.0561
     32  C74       -9.1760   16.6180   21.9340 C.ar  100  DMP100     -0.0222
     33  C75      -10.0030   16.6570   23.0400 C.ar  100  DMP100     -0.0561
     34  C76       -9.5420   16.2100   24.2650 C.ar  100  DMP100     -0.0567
     35  C77       -9.6830   17.1030   20.6070 C.3   100  DMP100      0.0692
     36  N2        -9.5060   15.2230   28.8700 N.am  100  DMP100     -0.2752
     37  N7        -8.3950   15.8500   26.8710 N.am  100  DMP100     -0.2752
     38  O1        -8.0650   13.9160   27.8550 O.2   100  DMP100     -0.2524
     39  O4       -11.6450   18.2270   28.7590 O.3   100  DMP100     -0.3873
     40  O5        -9.7670   19.2700   27.0400 O.3   100  DMP100     -0.3873
     41  O27      -11.2110   16.6890   35.6530 O.3   100  DMP100     -0.3904
     42  O77       -9.0550   18.3310   20.2690 O.3   100  DMP100     -0.3904
     43  H3       -11.1400   16.0420   29.7990 H     100  DMP100      0.0531
     44  H4        -9.7450   17.9160   29.3190 H     100  DMP100      0.0638
     45  H5       -10.5330   17.5100   26.4600 H     100  DMP100      0.0638
     46  H6        -8.2110   17.6810   25.9630 H     100  DMP100      0.0531
     47 H201       -8.3480   13.9060   29.9650 H     100  DMP100      0.0514
     48 H202      -10.0610   13.5620   29.9650 H     100  DMP100      0.0514
     49  H22      -10.0860   13.1890   32.3390 H     100  DMP100      0.0621
     50  H23      -10.3250   14.2640   34.5430 H     100  DMP100      0.0621
     51  H25       -9.1360   17.9950   32.8490 H     100  DMP100      0.0621
     52  H26       -8.8970   16.9220   30.6460 H     100  DMP100      0.0621
     53 H271       -9.6650   17.9140   35.0640 H     100  DMP100      0.0607
     54 H272       -9.1950   16.4180   35.8640 H     100  DMP100      0.0607
     55 H301      -11.1830   15.0270   27.0230 H     100  DMP100      0.0332
     56 H302      -12.4560   16.1100   27.5740 H     100  DMP100      0.0332
     57  H32      -12.0920   12.9220   26.9270 H     100  DMP100      0.0620
     58  H33      -13.1710   11.0080   28.0240 H     100  DMP100      0.0618
     59  H34      -14.0770   11.2510   30.2910 H     100  DMP100      0.0618
     60  H35      -13.9170   13.4120   31.4710 H     100  DMP100      0.0618
     61  H36      -12.8300   15.3310   30.3670 H     100  DMP100      0.0620
     62 H601       -7.3040   17.1360   28.7240 H     100  DMP100      0.0332
     63 H602       -7.5370   18.7980   28.1950 H     100  DMP100      0.0332
     64  H62       -5.0490   16.7350   28.7740 H     100  DMP100      0.0620
     65  H63       -2.8690   16.6240   27.6550 H     100  DMP100      0.0618
     66  H64       -2.5990   17.5790   25.4140 H     100  DMP100      0.0618
     67  H65       -4.5060   18.6570   24.2800 H     100  DMP100      0.0618
     68  H66       -6.6970   18.7640   25.4080 H     100  DMP100      0.0620
     69 H701       -7.9240   14.1770   25.7520 H     100  DMP100      0.0514
     70 H702       -6.7110   15.4350   25.7470 H     100  DMP100      0.0514
     71  H72       -6.4140   15.3080   23.3680 H     100  DMP100      0.0621
     72  H73       -7.2380   16.1040   21.1850 H     100  DMP100      0.0621
     73  H75      -11.0110   17.0350   22.9480 H     100  DMP100      0.0621
     74  H76      -10.1920   16.2410   25.1280 H     100  DMP100      0.0621
     75 H771      -10.7550   17.2400   20.6680 H     100  DMP100      0.0607
     76 H772       -9.4620   16.3710   19.8480 H     100  DMP100      0.0607
     77  HO4      -11.9890   17.9710   29.6180 H     100  DMP100      0.2100
     78  HO5       -9.7210   19.4480   26.0980 H     100  DMP100      0.2100
     79 HO27      -11.1570   16.4030   36.5680 H     100  DMP100      0.2098
     80 HO77       -8.3550   18.1430   19.6390 H     100  DMP100      0.2098
@<TRIPOS>BOND
     1    80    42    1
     2    76    35    1
     3    42    35    1
     4    35    75    1
     5    35    32    1
     6    72    31    1
     7    32    31   ar
     8    32    33   ar
     9    31    30   ar
    10    73    33    1
    11    33    34   ar
    12    30    71    1
    13    30    29   ar
    14    34    29   ar
    15    34    74    1
    16    67    26    1
    17    29    28    1
    18    26    27   ar
    19    26    25   ar
    20    68    27    1
    21    66    25    1
    22    28    70    1
    23    28    69    1
    24    28    37    1
    25    27    22   ar
    26    25    24   ar
    27    46     5    1
    28    78    40    1
    29    45     4    1
    30    37     5    1
    31    37     1   am
    32    57    16    1
    33     5     4    1
    34     5    21    1
    35    55    14    1
    36    40     4    1
    37    24    65    1
    38    24    23   ar
    39    22    23   ar
    40    22    21    1
    41     4     3    1
    42    56    14    1
    43    23    64    1
    44    38     1    2
    45     1    36   am
    46    21    63    1
    47    21    62    1
    48    14    15    1
    49    14     2    1
    50    16    17   ar
    51    16    15   ar
    52    58    17    1
    53    17    18   ar
    54     3    39    1
    55     3     2    1
    56     3    44    1
    57    15    20   ar
    58    39    77    1
    59     2    36    1
    60     2    43    1
    61    36     6    1
    62    18    59    1
    63    18    19   ar
    64    20    61    1
    65    20    19   ar
    66    47     6    1
    67    48     6    1
    68     6     7    1
    69    19    60    1
    70    52    12    1
    71     7    12   ar
    72     7     8   ar
    73    12    11   ar
    74    49     8    1
    75     8     9   ar
    76    11    51    1
    77    11    10   ar
    78     9    10   ar
    79     9    50    1
    80    10    13    1
    81    53    13    1
    82    13    41    1
    83    13    54    1
    84    41    79    1
