@<TRIPOS>MOLECULE
7DOZ_1UN_A1102
 40 43 0 0 0
SMALL
GASTEIGER

@<TRIPOS>ATOM
      1 C         -13.2760   14.4400   28.0510 C.3     1  UNL1        0.0161
      2 C         -13.3790   13.8110   29.4150 C.3     1  UNL1        0.0032
      3 C         -13.6680   12.2600   29.3280 C.3     1  UNL1        0.0001
      4 C         -12.5910   11.5450   28.4900 C.3     1  UNL1        0.0000
      5 C         -12.5340   12.1540   27.0960 C.3     1  UNL1        0.0000
      6 C         -12.2350   13.6780   27.1580 C.3     1  UNL1        0.0014
      7 N         -11.5480   16.0830   28.9040 N.3     1  UNL1       -0.2643
      8 C         -11.6710   15.4860   30.2750 C.3     1  UNL1        0.1365
      9 C         -12.0930   13.9950   30.2240 C.3     1  UNL1        0.0254
     10 C         -12.8230   15.9350   28.0970 C.3     1  UNL1        0.0725
     11 C         -10.3300   15.5720   30.9520 C.2     1  UNL1        0.2558
     12 N         -10.3200   15.8920   32.3910 N.am    1  UNL1       -0.2077
     13 C          -9.0980   16.0160   33.1600 C.3     1  UNL1        0.0788
     14 C          -8.3600   17.2890   32.6320 C.3     1  UNL1        0.0217
     15 C          -8.2180   14.6990   33.0480 C.3     1  UNL1        0.0217
     16 C          -9.4790   16.2510   34.6650 C.3     1  UNL1        0.0217
     17 O          -9.3480   15.3800   30.3210 O.2     1  UNL1       -0.2719
     18 C         -11.1950   17.5190   29.0050 C.3     1  UNL1        0.1075
     19 C         -10.5830   17.9100   27.6140 C.3     1  UNL1        0.1885
     20 C          -9.1210   17.4730   27.5420 C.3     1  UNL1        0.1383
     21 O         -10.7050   19.2510   27.3530 O.3     1  UNL1       -0.2198
     22 N          -8.7080   17.7340   26.1780 N.am    1  UNL1       -0.1999
     23 C          -8.2540   18.3330   28.4570 C.3     1  UNL1        0.0864
     24 C          -8.4460   16.6270   25.2320 C.2     1  UNL1        0.2646
     25 O          -8.5420   15.4790   25.5730 O.2     1  UNL1       -0.2684
     26 C          -8.0140   17.0670   23.7980 C.ar    1  UNL1        0.0542
     27 C          -6.8500   17.8270   23.6460 C.ar    1  UNL1        0.0045
     28 C          -6.4540   18.2320   22.3760 C.ar    1  UNL1        0.0034
     29 C          -7.2280   17.8950   21.2700 C.ar    1  UNL1        0.0417
     30 C          -8.3950   17.1400   21.4330 C.ar    1  UNL1        0.1919
     31 C          -8.7940   16.7390   22.7020 C.ar    1  UNL1        0.0215
     32 O          -9.1800   16.7980   20.3280 O.3     1  UNL1       -0.2869
     33 C         -10.0810   15.9090   22.8900 C.3     1  UNL1        0.0345
     34 S          -6.5820   17.5770   28.6000 S.3     1  UNL1       -0.1118
     35 C          -5.4670   18.2060   27.2470 C.ar    1  UNL1        0.0253
     36 C          -4.4130   17.4130   26.8120 C.ar    1  UNL1        0.0061
     37 C          -3.5710   17.8670   25.8020 C.ar    1  UNL1        0.0005
     38 C          -3.7990   19.1240   25.2380 C.ar    1  UNL1        0.0000
     39 C          -4.8520   19.9210   25.6790 C.ar    1  UNL1        0.0005
     40 C          -5.6900   19.4640   26.6900 C.ar    1  UNL1        0.0061
@<TRIPOS>BOND
     1     2     1    1
     2     2     3    1
     3     4     3    1
     4     5     4    1
     5     6     5    1
     6     1     6    1
     7     8     7    1
     8     9     8    1
     9     9     2    1
    10    10     7    1
    11    10     1    1
    12     8    11    1
    13    12    11   am
    14    13    12    1
    15    13    14    1
    16    15    13    1
    17    16    13    1
    18    17    11    2
    19    18     7    1
    20    19    18    1
    21    20    19    1
    22    19    21    1
    23    22    20    1
    24    20    23    1
    25    24    22   am
    26    25    24    2
    27    26    24    1
    28    27    26   ar
    29    28    27   ar
    30    29    28   ar
    31    30    29   ar
    32    31    30   ar
    33    31    26   ar
    34    32    30    1
    35    33    31    1
    36    34    23    1
    37    35    34    1
    38    36    35   ar
    39    37    36   ar
    40    38    37   ar
    41    39    38   ar
    42    40    35   ar
    43    40    39   ar
