@<TRIPOS>MOLECULE
1QBT_146_B300
 62 70 0 0 0
SMALL
GASTEIGER

@<TRIPOS>ATOM
      1 C          -8.9670   15.3970   27.9250 C.2     1  UNL1        0.3077
      2 C          -9.5840   14.8480   30.1740 C.3     1  UNL1        0.1217
      3 C         -10.9220   16.5620   28.9550 C.3     1  UNL1        0.1144
      4 C         -10.6230   18.0160   28.6800 C.3     1  UNL1        0.2021
      5 C         -10.2730   18.2560   27.2270 C.3     1  UNL1        0.2021
      6 C          -8.9010   17.7090   26.9240 C.3     1  UNL1        0.1144
      7 C          -8.2050   15.6660   25.6640 C.3     1  UNL1        0.1217
      8 C          -9.4660   15.6070   31.4530 C.ar    1  UNL1       -0.0021
      9 C         -10.0720   15.0790   32.6040 C.ar    1  UNL1        0.0020
     10 C          -9.9900   15.7920   33.8200 C.ar    1  UNL1        0.0552
     11 C          -9.2980   17.0250   33.8810 C.ar    1  UNL1        0.0046
     12 C          -8.6860   17.5430   32.7260 C.ar    1  UNL1       -0.0001
     13 C          -8.7730   16.8340   31.5130 C.ar    1  UNL1       -0.0026
     14 C         -10.6250   15.2580   35.0630 C.2     1  UNL1        0.2715
     15 C         -11.3870   13.2450   36.1990 C.ar    1  UNL1        0.2435
     16 C         -12.6780   12.8010   39.5000 C.ar    1  UNL1        0.0207
     17 C         -12.8920   11.5520   40.1170 C.ar    1  UNL1        0.0016
     18 C         -12.6030   10.3460   39.4430 C.ar    1  UNL1        0.0016
     19 C         -12.0920   10.3380   38.1330 C.ar    1  UNL1        0.0207
     20 C         -11.8640   11.5660   37.4860 C.ar    1  UNL1        0.1019
     21 C         -12.1680   12.8380   38.1920 C.ar    1  UNL1        0.1019
     22 C         -12.0520   15.9350   28.1000 C.3     1  UNL1        0.0489
     23 C         -12.6020   14.6520   28.6640 C.ar    1  UNL1       -0.0204
     24 C         -12.2150   13.4140   28.1060 C.ar    1  UNL1       -0.0042
     25 C         -12.6600   12.2170   28.6990 C.ar    1  UNL1       -0.0003
     26 C         -13.4970   12.2560   29.8370 C.ar    1  UNL1       -0.0000
     27 C         -13.8940   13.4970   30.3860 C.ar    1  UNL1       -0.0003
     28 C         -13.4490   14.6990   29.7950 C.ar    1  UNL1       -0.0042
     29 C          -7.7650   18.3360   27.7580 C.3     1  UNL1        0.0489
     30 C          -6.4230   18.2380   27.0980 C.ar    1  UNL1       -0.0204
     31 C          -6.1360   19.0930   26.0140 C.ar    1  UNL1       -0.0042
     32 C          -4.8910   18.9810   25.3750 C.ar    1  UNL1       -0.0003
     33 C          -3.9420   18.0290   25.8150 C.ar    1  UNL1       -0.0000
     34 C          -4.2360   17.1910   26.9020 C.ar    1  UNL1       -0.0003
     35 C          -5.4820   17.2920   27.5460 C.ar    1  UNL1       -0.0042
     36 C          -8.9450   15.9650   24.3940 C.ar    1  UNL1       -0.0021
     37 C          -8.1770   16.2510   23.2670 C.ar    1  UNL1        0.0020
     38 C          -8.8160   16.5170   22.0470 C.ar    1  UNL1        0.0552
     39 C         -10.2190   16.4880   21.9450 C.ar    1  UNL1        0.0046
     40 C         -11.0000   16.1950   23.0770 C.ar    1  UNL1       -0.0001
     41 C         -10.3540   15.9370   24.3060 C.ar    1  UNL1       -0.0026
     42 C          -8.0000   16.8660   20.8490 C.2     1  UNL1        0.2715
     43 C          -5.7770   16.5940   19.8060 C.ar    1  UNL1        0.2435
     44 C          -4.9480   16.8490   16.3470 C.ar    1  UNL1        0.0207
     45 C          -3.7070   16.4920   15.7840 C.ar    1  UNL1        0.0016
     46 C          -2.6550   16.0140   16.5950 C.ar    1  UNL1        0.0016
     47 C          -2.8020   15.8730   17.9910 C.ar    1  UNL1        0.0207
     48 C          -4.0250   16.2130   18.5930 C.ar    1  UNL1        0.1019
     49 C          -5.1290   16.7190   17.7340 C.ar    1  UNL1        0.1019
     50 N          -9.7610   15.6650   28.9760 N.am    1  UNL1       -0.2586
     51 N          -8.7630   16.2360   26.8880 N.am    1  UNL1       -0.2586
     52 N         -10.8880   13.9540   35.0270 N.am    1  UNL1       -0.1394
     53 N         -11.8430   13.8360   37.3250 N.ar    1  UNL1       -0.2106
     54 N         -11.3860   11.9140   36.2570 N.ar    1  UNL1       -0.2106
     55 N          -6.7020   16.5300   20.9440 N.am    1  UNL1       -0.1394
     56 N          -6.1690   16.9380   18.5650 N.ar    1  UNL1       -0.2106
     57 N          -4.5080   16.1690   19.8710 N.ar    1  UNL1       -0.2106
     58 O          -8.4000   14.3210   27.9090 O.2     1  UNL1       -0.2523
     59 O         -11.7880   18.7050   29.0210 O.3     1  UNL1       -0.2186
     60 O         -10.1940   19.6280   26.9370 O.3     1  UNL1       -0.2186
     61 O         -10.8630   15.9350   36.0500 O.2     1  UNL1       -0.2679
     62 O          -8.4730   17.4080   19.8660 O.2     1  UNL1       -0.2679
@<TRIPOS>BOND
     1     4     3    1
     2     5     4    1
     3     6     5    1
     4     8     2    1
     5     9     8   ar
     6    10     9   ar
     7    11    10   ar
     8    12    11   ar
     9    13     8   ar
    10    13    12   ar
    11    14    10    1
    12    17    16   ar
    13    18    17   ar
    14    19    18   ar
    15    20    19   ar
    16    21    20   ar
    17    21    16   ar
    18     3    22    1
    19    23    22    1
    20    24    23   ar
    21    25    24   ar
    22    26    25   ar
    23    27    26   ar
    24    28    27   ar
    25    28    23   ar
    26     6    29    1
    27    30    29    1
    28    31    30   ar
    29    32    31   ar
    30    33    32   ar
    31    34    33   ar
    32    35    30   ar
    33    35    34   ar
    34    36     7    1
    35    37    36   ar
    36    38    37   ar
    37    39    38   ar
    38    40    39   ar
    39    41    40   ar
    40    41    36   ar
    41    42    38    1
    42    45    44   ar
    43    46    45   ar
    44    47    46   ar
    45    48    47   ar
    46    49    48   ar
    47    49    44   ar
    48    50     3    1
    49    50     2    1
    50    50     1   am
    51    51     7    1
    52    51     1   am
    53    51     6    1
    54    52    15    1
    55    52    14   am
    56    53    15   ar
    57    53    21   ar
    58    54    20   ar
    59    54    15   ar
    60    55    43    1
    61    55    42   am
    62    56    43   ar
    63    56    49   ar
    64    57    43   ar
    65    57    48   ar
    66    58     1    2
    67     4    59    1
    68     5    60    1
    69    61    14    2
    70    62    42    2
