@<TRIPOS>MOLECULE
6DJ7_G10_B201
 40 43 0 0 0
SMALL
GASTEIGER

@<TRIPOS>ATOM
      1 N          -8.4260   16.9520   19.5950 N.pl3   1  UNL1       -0.1281
      2 C          -8.5240   16.6590   20.8950 C.ar    1  UNL1        0.0892
      3 C          -9.7630   16.6170   21.5240 C.ar    1  UNL1        0.0194
      4 C          -9.9300   16.3210   22.8640 C.ar    1  UNL1        0.0213
      5 C          -8.7760   16.0610   23.6050 C.ar    1  UNL1        0.1223
      6 C          -7.5300   16.1260   23.0060 C.ar    1  UNL1        0.0213
      7 C          -7.3760   16.4260   21.6540 C.ar    1  UNL1        0.0194
      8 S          -8.8860   15.6760   25.3270 S.O2    1  UNL1        0.0634
      9 O         -10.1660   15.0410   25.5760 O.2     1  UNL1       -0.1528
     10 O          -7.6800   14.9210   25.6970 O.2     1  UNL1       -0.1528
     11 N          -8.7700   17.1020   26.1250 N.3     1  UNL1       -0.1529
     12 C          -7.5610   17.8450   25.8860 C.3     1  UNL1        0.0958
     13 C          -6.9740   18.4440   27.1740 C.3     1  UNL1        0.0178
     14 C          -6.5720   17.3400   28.1560 C.3     1  UNL1        0.0015
     15 C          -5.7790   19.3660   26.8640 C.3     1  UNL1        0.0015
     16 C         -10.0400   17.7570   26.3180 C.3     1  UNL1        0.1304
     17 C         -10.4420   17.7830   27.7850 C.3     1  UNL1        0.1898
     18 O         -11.4330   18.7930   28.0490 O.3     1  UNL1       -0.2197
     19 C         -10.8990   16.4370   28.3630 C.3     1  UNL1        0.1347
     20 N         -11.0050   16.5220   29.8240 N.am    1  UNL1       -0.1675
     21 C         -10.1950   15.9080   30.6980 C.2     1  UNL1        0.4211
     22 O          -9.2510   15.1900   30.3120 O.2     1  UNL1       -0.2246
     23 O         -10.5290   16.1430   31.9920 O.3     1  UNL1       -0.4343
     24 C          -9.8010   15.4290   33.0050 C.3     1  UNL1        0.2102
     25 C          -9.5430   16.4000   34.1560 C.3     1  UNL1        0.1886
     26 O         -10.7860   16.5370   34.8540 O.3     1  UNL1       -0.3264
     27 C         -11.4740   15.2970   34.7380 C.3     1  UNL1        0.2444
     28 O         -12.7710   15.5740   34.2060 O.3     1  UNL1       -0.3244
     29 C         -13.0000   14.9290   32.9550 C.3     1  UNL1        0.2112
     30 C         -11.8900   13.9020   32.8910 C.3     1  UNL1        0.2989
     31 C         -10.7550   14.4460   33.7190 C.3     1  UNL1        0.1626
     32 C         -12.2780   16.0320   27.8260 C.3     1  UNL1        0.0508
     33 C         -13.7980   14.6410   29.2580 C.ar    1  UNL1       -0.0042
     34 C         -14.2380   13.4430   29.7810 C.ar    1  UNL1       -0.0003
     35 C         -13.6150   12.2420   29.4360 C.ar    1  UNL1       -0.0000
     36 C         -12.5860   12.2650   28.5050 C.ar    1  UNL1       -0.0003
     37 C         -12.1230   13.4720   27.9680 C.ar    1  UNL1       -0.0042
     38 C         -12.7300   14.6730   28.3520 C.ar    1  UNL1       -0.0204
     39 F         -11.4980   13.6230   31.6270 F       1  UNL1       -0.2013
     40 F         -12.3690   12.7570   33.4430 F       1  UNL1       -0.2013
@<TRIPOS>BOND
     1     2     1    1
     2     3     2   ar
     3     4     3   ar
     4     5     4   ar
     5     6     5   ar
     6     7     6   ar
     7     7     2   ar
     8     8     5    1
     9     9     8    2
    10    10     8    2
    11     8    11    1
    12    12    11    1
    13    13    12    1
    14    13    14    1
    15    15    13    1
    16    16    11    1
    17    17    16    1
    18    17    18    1
    19    19    17    1
    20    20    19    1
    21    21    20   am
    22    22    21    2
    23    23    21    1
    24    24    23    1
    25    25    24    1
    26    26    25    1
    27    27    26    1
    28    28    27    1
    29    29    28    1
    30    30    29    1
    31    31    30    1
    32    31    27    1
    33    31    24    1
    34    19    32    1
    35    34    33   ar
    36    35    34   ar
    37    36    35   ar
    38    37    36   ar
    39    38    37   ar
    40    38    33   ar
    41    38    32    1
    42    30    39    1
    43    40    30    1
