@<TRIPOS>MOLECULE
3CCT_3HI_D3
 42 45 0 0 0
SMALL
GASTEIGER

@<TRIPOS>ATOM
      1 N          17.4700    8.7160   13.9960 N.ar    1  UNL1       -0.3304
      2 C          17.5250    8.8760   15.3170 C.ar    1  UNL1        0.0597
      3 C          18.8630    8.9550   11.9560 C.3     1  UNL1        0.0385
      4 C          16.2780    8.2650   13.2890 C.3     1  UNL1        0.1083
      5 C          16.4070    6.7800   13.0170 C.3     1  UNL1        0.0574
      6 C          15.0910    4.7210   12.7000 C.3     1  UNL1        0.0664
      7 C          19.9740    7.9600   11.6210 C.3     1  UNL1        0.0062
      8 C          14.7430    9.2660   17.8730 C.ar    1  UNL1        0.0297
      9 C          23.8540   10.8780   14.3020 C.ar    1  UNL1        0.0199
     10 C          25.1140   11.3800   13.9640 C.ar    1  UNL1        0.0015
     11 C          16.2030    7.2670   16.6220 C.ar    1  UNL1        0.0037
     12 C          19.7770    9.1930   19.3550 C.ar    1  UNL1        0.0000
     13 C          15.2220    6.9170   17.5400 C.ar    1  UNL1        0.0297
     14 C          22.8570   12.8720   13.4040 C.ar    1  UNL1        0.2109
     15 C          20.2980   10.4730   19.5730 C.ar    1  UNL1        0.0000
     16 O          16.1660    2.5940   16.3340 O.co2   1  UNL1       -0.2456
     17 C          15.1180    2.3330   15.6800 C.2     1  UNL1        0.3674
     18 O          14.1260    1.7380   16.1830 O.co2   1  UNL1       -0.2456
     19 C          15.0310    2.7740   14.2410 C.3     1  UNL1        0.1469
     20 C          14.8240    4.2790   14.1340 C.3     1  UNL1        0.1658
     21 O          13.4890    4.6410   14.4710 O.3     1  UNL1       -0.2225
     22 C          15.0620    6.2470   12.5780 C.3     1  UNL1        0.1565
     23 O          14.8480    6.6680   11.2440 O.3     1  UNL1       -0.2230
     24 C          16.4730    8.6120   16.3360 C.ar    1  UNL1        0.0159
     25 C          14.4950    7.9250   18.1640 C.ar    1  UNL1        0.1401
     26 F          13.5390    7.5970   19.0450 F       1  UNL1       -0.2042
     27 C          15.7310    9.6100   16.9500 C.ar    1  UNL1        0.0037
     28 C          18.6520    9.0470   13.4260 C.ar    1  UNL1        0.0411
     29 C          19.0980   10.3370   11.3870 C.3     1  UNL1        0.0062
     30 C          19.5520    9.4700   14.4220 C.ar    1  UNL1        0.0684
     31 C          18.8910    9.3400   15.6410 C.ar    1  UNL1        0.0213
     32 C          19.3920    9.6950   17.0140 C.ar    1  UNL1        0.0016
     33 C          19.3270    8.8040   18.0850 C.ar    1  UNL1        0.0000
     34 C          20.3550   11.3740   18.5090 C.ar    1  UNL1        0.0000
     35 C          19.8960   10.9900   17.2440 C.ar    1  UNL1        0.0000
     36 C          20.9800    9.8760   14.1790 C.2     1  UNL1        0.2702
     37 O          21.7480    8.9540   13.9160 O.2     1  UNL1       -0.2680
     38 N          21.4020   11.1460   14.3450 N.am    1  UNL1       -0.1722
     39 C          22.7010   11.6210   14.0150 C.ar    1  UNL1        0.1125
     40 O          21.7970   13.6180   13.1270 O.3     1  UNL1       -0.2852
     41 C          24.1110   13.3770   13.0610 C.ar    1  UNL1        0.0434
     42 C          25.2520   12.6250   13.3430 C.ar    1  UNL1        0.0034
@<TRIPOS>BOND
     1     2     1   ar
     2     4     1    1
     3     5     4    1
     4     3     7    1
     5    10     9   ar
     6    13    11   ar
     7    15    12   ar
     8    17    16   ar
     9    18    17   ar
    10    19    17    1
    11    20    19    1
    12    20     6    1
    13    20    21    1
    14    22     6    1
    15    22     5    1
    16    22    23    1
    17    24    11   ar
    18    24     2    1
    19    25    13   ar
    20    25     8   ar
    21    26    25    1
    22    27     8   ar
    23    27    24   ar
    24    28     3    1
    25    28     1   ar
    26    29     3    1
    27    30    28   ar
    28    31    30   ar
    29    31     2   ar
    30    32    31    1
    31    33    32   ar
    32    33    12   ar
    33    34    15   ar
    34    35    32   ar
    35    35    34   ar
    36    36    30    1
    37    37    36    2
    38    38    36   am
    39    39    38    1
    40    39     9   ar
    41    39    14   ar
    42    40    14    1
    43    41    14   ar
    44    42    41   ar
    45    42    10   ar
