@<TRIPOS>MOLECULE
4UM3_09R_S301
 14 15 0 0 0
SMALL
GASTEIGER

@<TRIPOS>ATOM
      1 C         170.5440  124.1310  187.4080 C.ar    1  UNL1        0.1139
      2 C         170.1440  122.9320  186.7870 C.ar    1  UNL1        0.0674
      3 C         170.7590  121.7200  187.2420 C.ar    1  UNL1        0.0182
      4 C         171.7490  121.7660  188.2230 C.ar    1  UNL1        0.0273
      5 C         172.0770  123.0290  188.7710 C.ar    1  UNL1        0.1155
      6 N         171.4930  124.1790  188.3480 N.ar    1  UNL1       -0.2358
      7 BR        173.3100  123.2030  189.9810 Br      1  UNL1       -0.0280
      8 N         169.2250  122.9830  185.7800 N.pl3   1  UNL1       -0.3048
      9 C         168.6260  124.2620  185.3870 C.3     1  UNL1        0.1096
     10 C         167.2080  124.0610  184.8730 C.3     1  UNL1        0.1100
     11 N         166.2730  123.6050  185.9050 N.3     1  UNL1       -0.2162
     12 C         166.1170  122.1100  186.0600 C.3     1  UNL1        0.0905
     13 C         167.3470  121.1560  186.0160 C.3     1  UNL1        0.0402
     14 C         168.6040  121.7230  185.3040 C.3     1  UNL1        0.0924
@<TRIPOS>BOND
     1     2     1   ar
     2     3     2   ar
     3     4     3   ar
     4     5     4   ar
     5     6     5   ar
     6     6     1   ar
     7     7     5    1
     8     8     2    1
     9     9     8    1
    10    10     9    1
    11    11    10    1
    12    12    11    1
    13    13    12    1
    14    14    13    1
    15    14     8    1
