@<TRIPOS>MOLECULE
3WIP_ACH_J301
 10 9 0 0 0
SMALL
GASTEIGER

@<TRIPOS>ATOM
      1 N         167.0340  122.5640  185.7540 N.4     1  UNL1        0.3135
      2 C         167.9090  121.7750  186.6730 C.3     1  UNL1        0.1575
      3 C         169.3370  122.3140  186.6680 C.3     1  UNL1        0.2688
      4 O         170.1900  121.8340  187.6750 O.3     1  UNL1       -0.4420
      5 C         171.1100  122.7740  188.1840 C.2     1  UNL1        0.3178
      6 O         171.0830  123.9310  187.7410 O.2     1  UNL1       -0.2501
      7 C         172.1120  122.3900  189.2520 C.3     1  UNL1        0.1212
      8 C         167.1790  122.0750  184.3890 C.3     1  UNL1        0.1711
      9 C         167.3910  123.9690  185.6910 C.3     1  UNL1        0.1711
     10 C         165.6570  122.5800  186.2260 C.3     1  UNL1        0.1711
@<TRIPOS>UNITY_ATOM_ATTR
1 1
charge 1
@<TRIPOS>BOND
     1     2     1    1
     2     3     2    1
     3     4     3    1
     4     5     4    1
     5     6     5    2
     6     7     5    1
     7     1     8    1
     8     9     1    1
     9    10     1    1
