@<TRIPOS>MOLECULE
1UW6_NCT_E1206
 12 13 0 0 0
SMALL
GASTEIGER

@<TRIPOS>ATOM
      1 N         171.3130  123.8480  188.3930 N.ar    1  UNL1       -0.2426
      2 C         170.3900  123.6900  187.4190 C.ar    1  UNL1        0.0959
      3 C         169.8100  122.4450  187.1220 C.ar    1  UNL1        0.0114
      4 C         170.2140  121.3530  187.8730 C.ar    1  UNL1        0.0002
      5 C         171.1800  121.5230  188.8690 C.ar    1  UNL1        0.0204
      6 C         171.7160  122.7920  189.1210 C.ar    1  UNL1        0.0989
      7 N         167.5740  123.1500  186.3800 N.3     1  UNL1       -0.2691
      8 C         168.7590  122.2900  186.0670 C.3     1  UNL1        0.0817
      9 C         169.2560  122.7400  184.7120 C.3     1  UNL1        0.0220
     10 C         168.1790  123.6200  184.1070 C.3     1  UNL1        0.0191
     11 C         167.2190  123.9670  185.2230 C.3     1  UNL1        0.0724
     12 C         166.3920  122.3180  186.6670 C.3     1  UNL1        0.0899
@<TRIPOS>BOND
     1     2     1   ar
     2     3     2   ar
     3     4     3   ar
     4     5     4   ar
     5     6     5   ar
     6     6     1   ar
     7     8     7    1
     8     8     3    1
     9     9     8    1
    10    10     9    1
    11    11    10    1
    12    11     7    1
    13    12     7    1
