@<TRIPOS>MOLECULE
8ST3_ACH_D704
 26 25 0 0 0
SMALL
GASTEIGER

@<TRIPOS>ATOM
      1 N         167.3940  123.0940  185.2570 N.4     1  UNL1        0.2393
      2 C         168.7330  123.7780  185.1120 C.3     1  UNL1        0.0042
      3 C         169.4920  124.0630  186.3850 C.3     1  UNL1        0.1320
      4 O         169.8570  122.8480  187.0870 O.3     1  UNL1       -0.4594
      5 C         170.6400  123.0020  188.1530 C.2     1  UNL1        0.3041
      6 O         171.0270  124.0690  188.5200 O.2     1  UNL1       -0.2512
      7 C         170.9510  121.6980  188.8000 C.3     1  UNL1        0.0332
      8 C         166.8950  122.7370  183.8980 C.3     1  UNL1       -0.0417
      9 C         167.5310  121.8450  186.0610 C.3     1  UNL1       -0.0417
     10 C         166.3910  123.9830  185.9160 C.3     1  UNL1       -0.0417
     11 H         168.5570  124.6180  184.6430 H       1  UNL1        0.0849
     12 H         169.2670  123.1960  184.5320 H       1  UNL1        0.0849
     13 H         170.2950  124.5920  186.2000 H       1  UNL1        0.0752
     14 H         168.9170  124.5850  186.9800 H       1  UNL1        0.0752
     15 H         170.4320  121.6170  189.6250 H       1  UNL1        0.0342
     16 H         171.9030  121.6530  189.0210 H       1  UNL1        0.0342
     17 H         170.6990  120.9670  188.2010 H       1  UNL1        0.0342
     18 H         166.9480  123.5350  183.3330 H       1  UNL1        0.0778
     19 H         165.9660  122.4380  183.9780 H       1  UNL1        0.0778
     20 H         167.4450  122.0150  183.5330 H       1  UNL1        0.0778
     21 H         167.4920  122.0820  187.0100 H       1  UNL1        0.0778
     22 H         168.3910  121.4300  185.8490 H       1  UNL1        0.0778
     23 H         166.7950  121.2420  185.8260 H       1  UNL1        0.0778
     24 H         166.0420  124.6130  185.2530 H       1  UNL1        0.0778
     25 H         166.8270  124.4820  186.6350 H       1  UNL1        0.0778
     26 H         165.6770  123.4220  186.2810 H       1  UNL1        0.0778
@<TRIPOS>UNITY_ATOM_ATTR
1 1
charge 1
@<TRIPOS>BOND
     1     1     2    1
     2     3     2    1
     3     4     3    1
     4     5     4    1
     5     6     5    2
     6     7     5    1
     7     8     1    1
     8     9     1    1
     9    10     1    1
    10     2    11    1
    11    12     2    1
    12     3    13    1
    13    14     3    1
    14     7    15    1
    15    16     7    1
    16    17     7    1
    17     8    18    1
    18    19     8    1
    19    20     8    1
    20     9    21    1
    21    22     9    1
    22    23     9    1
    23    10    24    1
    24    25    10    1
    25    26    10    1
