@<TRIPOS>MOLECULE
8Q1M_ILR_C301
 16 18 0 0 0
SMALL
GASTEIGER

@<TRIPOS>ATOM
      1 C         164.2200  121.9620  182.2680 C.3     1  UNL1        0.1767
      2 C         165.7170  121.8040  182.4400 C.3     1  UNL1        0.1767
      3 C         164.2520  125.8820  179.4410 C.3     1  UNL1        0.0007
      4 O         166.2860  122.8740  181.6870 O.3     1  UNL1       -0.3313
      5 C         164.2010  125.2120  183.8720 C.3     1  UNL1        0.0470
      6 C         165.4790  125.2690  183.0800 C.2     1  UNL1        0.0357
      7 C         165.4920  125.1760  181.5700 C.3     1  UNL1        0.0783
      8 C         166.8340  125.7160  181.0880 C.3     1  UNL1        0.0120
      9 C         168.0500  125.1210  181.7730 C.3     1  UNL1        0.0268
     10 C         167.9710  125.3620  183.2650 C.3     1  UNL1        0.1247
     11 N         166.6130  125.3770  183.7890 N.2     1  UNL1       -0.2788
     12 C         165.2510  123.7070  181.1530 C.3     1  UNL1        0.1914
     13 O         163.9980  123.2340  181.6570 O.3     1  UNL1       -0.3313
     14 C         165.1730  123.5160  179.6410 C.3     1  UNL1        0.0566
     15 C         164.1020  124.4150  179.0210 C.3     1  UNL1        0.0050
     16 C         164.3970  126.0640  180.9590 C.3     1  UNL1        0.0099
@<TRIPOS>BOND
     1     2     1    1
     2     4     2    1
     3     6     5    1
     4     7     6    1
     5     7     8    1
     6     9     8    1
     7    10     9    1
     8    11     6    2
     9    11    10    1
    10    12     7    1
    11    12     4    1
    12    13    12    1
    13    13     1    1
    14    12    14    1
    15    15    14    1
    16    15     3    1
    17    16     7    1
    18    16     3    1
