@<TRIPOS>MOLECULE
5AFL_L0B_D1205
 25 27 0 0 0
SMALL
GASTEIGER

@<TRIPOS>ATOM
      1 O         169.3550  122.4290  182.9740 O.3     1  UNL1       -0.2183
      2 C         169.9350  122.1980  184.0260 C.3     1  UNL1        0.1756
      3 C         166.3820  129.2390  179.9000 C.ar    1  UNL1        0.0000
      4 C         167.5950  128.6580  180.2470 C.ar    1  UNL1        0.0001
      5 C         167.6280  127.4090  180.8400 C.ar    1  UNL1        0.0028
      6 C         166.4400  126.7230  181.0790 C.ar    1  UNL1        0.0347
      7 C         165.2230  127.3080  180.7320 C.ar    1  UNL1        0.0028
      8 C         165.1900  128.5680  180.1400 C.ar    1  UNL1        0.0001
      9 C         166.1020  125.5440  183.2050 C.3     1  UNL1        0.0851
     10 C         166.2360  124.2400  183.9950 C.3     1  UNL1        0.0652
     11 C         165.4090  124.3300  185.2710 C.3     1  UNL1        0.0165
     12 C         165.5370  123.0410  186.0730 C.3     1  UNL1        0.0028
     13 C         167.0020  122.7610  186.3830 C.3     1  UNL1        0.0161
     14 C         167.7640  122.6820  185.0650 C.3     1  UNL1        0.0604
     15 N         167.6480  123.9550  184.3180 N.3     1  UNL1       -0.2735
     16 C         168.2190  125.0710  185.0890 C.3     1  UNL1        0.0896
     17 C         169.2250  122.3580  185.3480 C.3     1  UNL1        0.0534
     18 C         166.4660  125.3830  181.7270 C.2     1  UNL1        0.1744
     19 O         167.7710  124.7960  181.6430 O.2     1  UNL1       -0.2913
     20 C         172.1130  121.8620  182.8390 C.ar    1  UNL1       -0.0018
     21 C         171.3690  121.7620  184.0160 C.ar    1  UNL1        0.0077
     22 C         171.9460  121.2880  185.1920 C.ar    1  UNL1       -0.0018
     23 C         173.2790  120.8880  185.1820 C.ar    1  UNL1       -0.0002
     24 C         174.0290  120.9850  184.0080 C.ar    1  UNL1       -0.0000
     25 C         173.4500  121.4710  182.8370 C.ar    1  UNL1       -0.0002
@<TRIPOS>BOND
     1     2     1    1
     2     4     3   ar
     3     5     4   ar
     4     6     5   ar
     5     7     6   ar
     6     8     7   ar
     7     8     3   ar
     8    10     9    1
     9    11    10    1
    10    12    11    1
    11    13    12    1
    12    14    13    1
    13    15    14    1
    14    15    10    1
    15    16    15    1
    16    14    17    1
    17    17     2    1
    18    18     9    1
    19    18     6    1
    20    19    18    2
    21    21    20   ar
    22    21     2    1
    23    22    21   ar
    24    23    22   ar
    25    24    23   ar
    26    25    24   ar
    27    25    20   ar
