@<TRIPOS>MOLECULE
6UR8_QMR_A702
 16 19 0 0 0
SMALL
GASTEIGER

@<TRIPOS>ATOM
      1 C         167.5570  120.9140  185.0070 C.3     1  UNL1        0.0930
      2 N         166.5000  121.3650  186.0770 N.3     1  UNL1       -0.2174
      3 C         166.3750  122.9260  186.1510 C.3     1  UNL1        0.0930
      4 C         167.6400  123.6440  185.5860 C.3     1  UNL1        0.0398
      5 C         168.0100  123.1520  184.5230 C.3     1  UNL1        0.0116
      6 C         168.5550  122.0630  184.6630 C.3     1  UNL1        0.0398
      7 C         169.6360  122.1970  185.9990 C.ar    1  UNL1       -0.0234
      8 C         170.7150  121.6540  186.5270 C.ar    1  UNL1        0.0161
      9 C         171.2560  122.1930  187.7670 C.ar    1  UNL1        0.0986
     10 N         172.3370  121.6590  188.2960 N.ar    1  UNL1       -0.2407
     11 C         172.8430  122.1370  189.4320 C.ar    1  UNL1        0.1195
     12 C         172.2160  123.2320  190.0830 C.ar    1  UNL1        0.1195
     13 N         171.1200  123.7760  189.5510 N.ar    1  UNL1       -0.2407
     14 C         170.6160  123.3020  188.4270 C.ar    1  UNL1        0.0986
     15 C         169.4220  123.9040  187.8500 C.ar    1  UNL1        0.0161
     16 C         168.9260  123.4210  186.7200 C.ar    1  UNL1       -0.0234
@<TRIPOS>BOND
     1     2     1    1
     2     3     2    1
     3     4     3    1
     4     5     4    1
     5     6     5    1
     6     6     1    1
     7     7     6    1
     8     8     7   ar
     9     9     8   ar
    10    10     9   ar
    11    11    10   ar
    12    12    11   ar
    13    13    12   ar
    14    14    13   ar
    15    14     9   ar
    16    15    14   ar
    17    16     4    1
    18    16    15   ar
    19    16     7   ar
