@<TRIPOS>MOLECULE
2XZ5_ACH_B1210
 10 9 0 0 0
SMALL
GASTEIGER

@<TRIPOS>ATOM
      1 N         166.6660  124.1970  183.3410 N.4     1  UNL1        0.3135
      2 C         168.1760  124.6600  183.1420 C.3     1  UNL1        0.1575
      3 C         169.2290  123.9340  184.0270 C.3     1  UNL1        0.2688
      4 O         169.4450  124.1300  185.6240 O.3     1  UNL1       -0.4420
      5 C         169.9800  123.3370  186.6230 C.2     1  UNL1        0.3178
      6 O         170.9960  123.8740  187.0690 O.2     1  UNL1       -0.2501
      7 C         169.3670  121.9750  187.0140 C.3     1  UNL1        0.1212
      8 C         165.8410  123.5620  182.2180 C.3     1  UNL1        0.1711
      9 C         165.6980  125.1960  183.7650 C.3     1  UNL1        0.1711
     10 C         166.4590  123.2900  184.3490 C.3     1  UNL1        0.1711
@<TRIPOS>UNITY_ATOM_ATTR
1 1
charge 1
@<TRIPOS>BOND
     1     2     1    1
     2     3     2    1
     3     4     3    1
     4     5     4    1
     5     6     5    2
     6     7     5    1
     7     1     8    1
     8     9     1    1
     9    10     1    1
