@<TRIPOS>MOLECULE
5OAJ_TKT_E601
 21 24 0 0 0
SMALL
GASTEIGER

@<TRIPOS>ATOM
      1 C         170.6360  120.5420  181.7620 C.ar    1  UNL1        0.0961
      2 O         170.5280  122.0670  179.9970 O.2     1  UNL1       -0.2448
      3 C         165.6680  125.4470  183.9390 C.3     1  UNL1        0.0896
      4 C         170.0750  121.6360  181.0440 C.2     1  UNL1        0.3427
      5 C         170.2780  120.0130  182.9850 C.ar    1  UNL1        0.1053
      6 O         169.0180  122.1110  181.7670 O.3     1  UNL1       -0.4491
      7 C         168.2820  123.6970  184.1790 C.3     1  UNL1        0.0175
      8 C         167.1550  122.6710  184.0020 C.3     1  UNL1        0.0175
      9 N         166.4870  124.7240  182.9630 N.3     1  UNL1       -0.2738
     10 C         166.2800  123.2600  182.8880 C.3     1  UNL1        0.0611
     11 C         166.7270  122.8130  181.4840 C.3     1  UNL1        0.0596
     12 C         167.9520  124.7990  183.1580 C.3     1  UNL1        0.0611
     13 C         168.5950  124.5300  181.7870 C.3     1  UNL1        0.0596
     14 C         168.1810  123.1760  181.1900 C.3     1  UNL1        0.1718
     15 C         173.5220  117.6570  180.8030 C.ar    1  UNL1        0.0015
     16 C         171.9710  118.7540  182.2530 C.ar    1  UNL1        0.0816
     17 C         171.7110  119.7330  181.2700 C.ar    1  UNL1        0.0254
     18 C         172.3570  119.6440  180.0330 C.ar    1  UNL1        0.0018
     19 C         173.2520  118.6050  179.8060 C.ar    1  UNL1        0.0001
     20 N         171.0840  118.9570  183.2890 N.ar    1  UNL1       -0.2436
     21 C         172.8780  117.7190  182.0360 C.ar    1  UNL1        0.0191
@<TRIPOS>BOND
     1     4     2    2
     2     4     1    1
     3     5     1   ar
     4     6     4    1
     5     8     7    1
     6     9     3    1
     7    10     9    1
     8    10     8    1
     9    11    10    1
    10    12     9    1
    11    12     7    1
    12    13    12    1
    13    14    13    1
    14    14    11    1
    15    14     6    1
    16    17    16   ar
    17    17     1   ar
    18    18    17   ar
    19    19    18   ar
    20    19    15   ar
    21    20    16   ar
    22    20     5   ar
    23    21    16   ar
    24    21    15   ar
