@<TRIPOS>MOLECULE
4UM1_09P_B211
 16 17 0 0 0
SMALL
GASTEIGER

@<TRIPOS>ATOM
      1 C         167.5950  124.4400  185.0310 C.3     1  UNL1        0.1100
      2 N         166.6630  123.7300  185.9430 N.3     1  UNL1       -0.2162
      3 C         166.3110  122.3190  185.6270 C.3     1  UNL1        0.0905
      4 C         167.4590  121.3460  185.9690 C.3     1  UNL1        0.0402
      5 C         168.8060  121.7130  185.3300 C.3     1  UNL1        0.0924
      6 N         169.3770  122.8920  186.0010 N.pl3   1  UNL1       -0.3047
      7 C         169.1010  124.1490  185.2620 C.3     1  UNL1        0.1096
      8 C         172.5600  122.6350  188.6160 C.ar    1  UNL1        0.1357
      9 C         171.9150  121.4200  188.2810 C.ar    1  UNL1        0.1589
     10 C         170.8140  121.5110  187.3820 C.ar    1  UNL1        0.0546
     11 C         170.4140  122.7780  186.8720 C.ar    1  UNL1        0.0704
     12 C         171.1590  123.9060  187.3100 C.ar    1  UNL1        0.1135
     13 N         172.2120  123.8470  188.1570 N.ar    1  UNL1       -0.2378
     14 O         172.4120  120.2420  188.8540 O.3     1  UNL1       -0.4738
     15 C         171.9240  118.9530  188.4650 C.3     1  UNL1        0.2056
     16 C         173.0560  118.2190  187.7500 C.3     1  UNL1        0.0512
@<TRIPOS>BOND
     1     2     1    1
     2     3     2    1
     3     4     3    1
     4     5     4    1
     5     6     5    1
     6     7     1    1
     7     7     6    1
     8     9     8   ar
     9    10     9   ar
    10    11    10   ar
    11    11     6    1
    12    12    11   ar
    13    13    12   ar
    14    13     8   ar
    15    14     9    1
    16    15    14    1
    17    16    15    1
