@<TRIPOS>MOLECULE
4XPA_42J_A703
 11 11 0 0 0
SMALL
GASTEIGER

@<TRIPOS>ATOM
      1 CL        128.9240  131.6260  130.2850 Cl      1  UNL1       -0.0814
      2 C         129.8470  130.5230  131.3560 C.ar    1  UNL1        0.0679
      3 C         131.2160  130.3810  131.1860 C.ar    1  UNL1        0.0682
      4 CL        132.0610  131.2990  129.8940 Cl      1  UNL1       -0.0814
      5 C         131.9350  129.5290  132.0150 C.ar    1  UNL1        0.0119
      6 C         131.2770  128.8210  133.0130 C.ar    1  UNL1       -0.0033
      7 C         129.1900  129.8170  132.3570 C.ar    1  UNL1        0.0080
      8 C         129.9040  128.9590  133.1840 C.ar    1  UNL1       -0.0198
      9 C         129.1860  128.1900  134.2690 C.3     1  UNL1        0.0469
     10 C         129.6100  126.7250  134.2410 C.3     1  UNL1        0.1140
     11 N         130.8230  126.5400  135.0480 N.3     1  UNL1       -0.1310
@<TRIPOS>BOND
     1     2     1    1
     2     3     2   ar
     3     4     3    1
     4     5     3   ar
     5     6     5   ar
     6     7     2   ar
     7     8     7   ar
     8     8     6   ar
     9     9     8    1
    10    10     9    1
    11    11    10    1
