@<TRIPOS>MOLECULE
8WTY_XEF_A701
 28 32 0 0 0
SMALL
GASTEIGER

@<TRIPOS>ATOM
      1 C         129.1130  129.1220  131.0850 C.ar    1  UNL1        0.1400
      2 C         128.0390  123.0230  130.8090 C.3     1  UNL1        0.0445
      3 C         126.8500  122.1020  130.3750 C.ar    1  UNL1       -0.0104
      4 C         127.5250  124.1200  131.7490 C.3     1  UNL1        0.0769
      5 C         129.8210  126.6670  130.7960 C.3     1  UNL1        0.1095
      6 C         127.8770  126.0260  132.6890 C.3     1  UNL1        0.0939
      7 C         128.8550  125.4880  130.6810 C.3     1  UNL1        0.0939
      8 C         128.7800  127.2560  132.8540 C.3     1  UNL1        0.1095
      9 C         130.2060  129.8900  130.2040 C.ar    1  UNL1        0.0396
     10 C         125.1220  121.2560  128.5120 C.ar    1  UNL1        0.0021
     11 C         126.3090  122.1760  128.9430 C.ar    1  UNL1       -0.0059
     12 C         124.5090  120.2900  129.5050 C.ar    1  UNL1        0.0707
     13 C         126.2140  121.1080  131.3910 C.ar    1  UNL1        0.0550
     14 C         124.3920  121.1040  127.2100 C.3     1  UNL1        0.1147
     15 C         129.7150  131.2210  129.9220 C.ar    1  UNL1        0.0502
     16 C         125.0490  120.2080  130.9520 C.ar    1  UNL1        0.0274
     17 C         123.3170  120.0390  127.3920 C.2     1  UNL1        0.2500
     18 C         131.6040  129.4120  129.6670 C.ar    1  UNL1        0.0033
     19 C         130.5730  132.1970  129.0830 C.ar    1  UNL1        0.0080
     20 C         132.4460  130.3500  128.8510 C.ar    1  UNL1        0.0001
     21 C         131.9340  131.7460  128.5510 C.ar    1  UNL1        0.0006
     22 N         128.4120  125.0360  131.9110 N.3     1  UNL1       -0.2695
     23 N         129.2380  127.7460  131.5670 N.pl3   1  UNL1       -0.2899
     24 N         128.0010  130.0160  131.3010 N.ar    1  UNL1       -0.1943
     25 N         123.3960  119.5430  128.8090 N.am    1  UNL1       -0.1792
     26 O         122.5590  119.6680  126.5700 O.2     1  UNL1       -0.2726
     27 S         128.3220  131.3590  130.5920 S.2     1  UNL1        0.0144
     28 CL        126.8320  121.0080  133.0630 Cl      1  UNL1       -0.0825
@<TRIPOS>BOND
     1     3     2    1
     2     4     2    1
     3     7     5    1
     4     8     6    1
     5     9     1   ar
     6    11    10   ar
     7    11     3   ar
     8    12    10   ar
     9    13     3   ar
    10    14    10    1
    11    15     9   ar
    12    16    12   ar
    13    16    13   ar
    14    17    14    1
    15    18     9   ar
    16    19    15   ar
    17    20    18   ar
    18    21    19   ar
    19    21    20   ar
    20    22     4    1
    21    22     7    1
    22    22     6    1
    23    23     5    1
    24    23     8    1
    25    23     1    1
    26    24     1   ar
    27    25    17   am
    28    25    12    1
    29    26    17    2
    30    27    24   ar
    31    27    15   ar
    32    28    13    1
