@<TRIPOS>MOLECULE
8Z1L_A1LX4_A702
 19 20 0 0 0
SMALL
GASTEIGER

@<TRIPOS>ATOM
      1 C         130.4960  127.6120  133.3030 C.3     1  UNL1        0.0670
      2 N         130.2450  126.2080  135.2220 N.3     1  UNL1       -0.2164
      3 C         129.6870  125.1230  134.4570 C.3     1  UNL1        0.1075
      4 C         129.5580  130.5580  134.9110 C.ar    1  UNL1       -0.0008
      5 C         130.9570  131.3720  136.7700 C.ar    1  UNL1       -0.0000
      6 C         127.9000  130.8770  130.6890 C.3     1  UNL1        0.0342
      7 C         129.3730  131.1850  130.5080 C.ar    1  UNL1        0.0121
      8 C         129.8110  132.2590  129.5260 C.ar    1  UNL1       -0.0013
      9 C         131.0780  132.5320  129.3670 C.ar    1  UNL1       -0.0001
     10 C         132.0920  131.7490  130.1760 C.ar    1  UNL1        0.0031
     11 C         131.7080  130.8250  131.0220 C.ar    1  UNL1        0.0366
     12 C         130.2420  130.5140  131.1980 C.ar    1  UNL1        0.1348
     13 O         129.8080  129.5390  132.0890 O.3     1  UNL1       -0.4750
     14 C         130.7510  129.0800  133.0130 C.3     1  UNL1        0.1896
     15 C         129.8140  127.4590  134.6480 C.3     1  UNL1        0.0928
     16 C         130.7850  129.8790  134.3260 C.ar    1  UNL1        0.0172
     17 C         129.6420  131.2390  136.0300 C.ar    1  UNL1       -0.0002
     18 C         132.0170  130.7930  136.2750 C.ar    1  UNL1       -0.0002
     19 C         131.9190  129.9990  134.9780 C.ar    1  UNL1       -0.0008
@<TRIPOS>BOND
     1     3     2    1
     2     7     6    1
     3     8     7   ar
     4     9     8   ar
     5    10     9   ar
     6    11    10   ar
     7    12     7   ar
     8    12    11   ar
     9    13    12    1
    10    14    13    1
    11    14     1    1
    12    15     2    1
    13    15     1    1
    14    16    14    1
    15    16     4   ar
    16    17     4   ar
    17    17     5   ar
    18    18     5   ar
    19    19    16   ar
    20    19    18   ar
