@<TRIPOS>MOLECULE
8HFI_DSM_A701
 20 22 0 0 0
SMALL
GASTEIGER

@<TRIPOS>ATOM
      1 C         128.5620  125.0200  133.1040 C.3     1  UNL1        0.1075
      2 N         129.8620  125.3870  133.6630 N.3     1  UNL1       -0.2165
      3 C         130.4190  126.6280  133.1250 C.3     1  UNL1        0.0905
      4 C         131.2380  126.3800  131.8740 C.3     1  UNL1        0.0406
      5 C         131.4800  127.6150  131.0200 C.3     1  UNL1        0.0970
      6 N         130.2880  128.4550  130.9200 N.pl3   1  UNL1       -0.2873
      7 C         129.1600  127.7310  130.4690 C.ar    1  UNL1        0.0475
      8 C         129.2980  126.6410  129.6220 C.ar    1  UNL1        0.0145
      9 C         128.1890  125.9090  129.2800 C.ar    1  UNL1        0.0013
     10 C         126.9580  126.2310  129.7960 C.ar    1  UNL1       -0.0002
     11 C         126.8270  127.3010  130.6480 C.ar    1  UNL1       -0.0030
     12 C         127.9290  128.0530  131.0290 C.ar    1  UNL1       -0.0082
     13 C         127.9100  129.2470  131.9400 C.3     1  UNL1        0.0323
     14 C         128.1960  130.5570  131.1650 C.3     1  UNL1        0.0323
     15 C         129.4930  130.6720  130.4000 C.ar    1  UNL1       -0.0082
     16 C         130.4760  129.6850  130.2590 C.ar    1  UNL1        0.0475
     17 C         129.7250  131.8820  129.7560 C.ar    1  UNL1       -0.0030
     18 C         130.8720  132.1170  129.0340 C.ar    1  UNL1       -0.0002
     19 C         131.8320  131.1470  128.9330 C.ar    1  UNL1        0.0013
     20 C         131.6420  129.9290  129.5420 C.ar    1  UNL1        0.0145
@<TRIPOS>BOND
     1     2     1    1
     2     3     2    1
     3     4     3    1
     4     5     4    1
     5     6     5    1
     6     7     6    1
     7     8     7   ar
     8     9     8   ar
     9    10     9   ar
    10    11    10   ar
    11    12    11   ar
    12    12     7   ar
    13    13    12    1
    14    14    13    1
    15    15    14    1
    16    16    15   ar
    17    16     6    1
    18    17    15   ar
    19    18    17   ar
    20    19    18   ar
    21    20    16   ar
    22    20    19   ar
