@<TRIPOS>MOLECULE
8HFF_LNR_A701
 12 12 0 0 0
SMALL
GASTEIGER

@<TRIPOS>ATOM
      1 O         132.7910  130.9020  128.9290 O.3     1  UNL1       -0.2832
      2 C         131.5290  130.8940  129.4650 C.ar    1  UNL1        0.2340
      3 C         131.1070  129.8970  130.3260 C.ar    1  UNL1        0.0436
      4 C         130.6630  131.9280  129.1240 C.ar    1  UNL1        0.2342
      5 O         131.1010  132.8940  128.2720 O.3     1  UNL1       -0.2831
      6 C         129.3840  131.9570  129.6390 C.ar    1  UNL1        0.0452
      7 C         128.9710  130.9480  130.5020 C.ar    1  UNL1        0.0017
      8 C         129.8240  129.9130  130.8490 C.ar    1  UNL1        0.0126
      9 C         129.3610  128.8170  131.7980 C.3     1  UNL1        0.1933
     10 O         128.9090  127.6700  131.1020 O.3     1  UNL1       -0.2167
     11 C         130.4830  128.3960  132.7440 C.3     1  UNL1        0.1466
     12 N         129.9820  127.5340  133.8130 N.3     1  UNL1       -0.1282
@<TRIPOS>BOND
     1     2     1    1
     2     3     2   ar
     3     4     2   ar
     4     5     4    1
     5     6     4   ar
     6     7     6   ar
     7     8     7   ar
     8     8     3   ar
     9     9     8    1
    10     9    10    1
    11    11     9    1
    12    12    11    1
