6PS3_CVD_A1201
     RDKit          3D

 30 33  0  0  0  0  0  0  0  0999 V2000
  -33.4330   10.4930    8.3550 O   0  0  0  0  0  0  0  0  0  0  0  0
  -32.2720    9.8150    7.9660 C   0  0  0  0  0  0  0  0  0  0  0  0
  -31.3590   10.7720    7.2070 C   0  0  0  0  0  0  0  0  0  0  0  0
  -30.0250   10.3820    7.4180 O   0  0  0  0  0  0  0  0  0  0  0  0
  -29.0210   10.9470    6.6040 C   0  0  0  0  0  0  0  0  0  0  0  0
  -29.1070   12.1810    6.1060 C   0  0  0  0  0  0  0  0  0  0  0  0
  -27.9580   12.7650    5.2600 C   0  0  0  0  0  0  0  0  0  0  0  0
  -26.8670   12.0440    5.0240 C   0  0  0  0  0  0  0  0  0  0  0  0
  -26.7510   10.6390    5.6090 C   0  0  0  0  0  0  0  0  0  0  0  0
  -27.7440   10.1370    6.3520 C   0  0  0  0  0  0  0  0  0  0  0  0
  -27.2900    8.6740    6.7720 C   0  0  0  0  0  0  0  0  0  0  0  0
  -27.9490    7.5660    7.5980 C   0  0  0  0  0  0  0  0  0  0  0  0
  -27.3190    6.4050    7.7490 C   0  0  0  0  0  0  0  0  0  0  0  0
  -25.9190    6.2000    7.1460 C   0  0  0  0  0  0  0  0  0  0  0  0
  -25.3620    7.1470    6.4070 C   0  0  0  0  0  0  0  0  0  0  0  0
  -26.0770    8.4850    6.2290 C   0  0  0  0  0  0  0  0  0  0  0  0
  -25.7650    9.6570    5.5370 N   0  0  0  0  0  0  0  0  0  0  0  0
  -32.6060    8.6170    7.0670 C   0  0  0  0  0  0  0  0  0  0  0  0
  -33.6020    7.7840    7.7080 N   0  0  0  0  0  0  0  0  0  0  0  0
  -33.8580    6.5790    6.9460 C   0  0  0  0  0  0  0  0  0  0  0  0
  -35.2270    6.0140    7.3460 C   0  0  0  0  0  0  0  0  0  0  0  0
  -35.3320    5.9740    8.7470 O   0  0  0  0  0  0  0  0  0  0  0  0
  -36.5320    5.4900    9.2990 C   0  0  0  0  0  0  0  0  0  0  0  0
  -37.4000    6.3550    9.8230 C   0  0  0  0  0  0  0  0  0  0  0  0
  -38.7060    5.8570   10.4600 C   0  0  0  0  0  0  0  0  0  0  0  0
  -38.9540    4.5560   10.5100 C   0  0  0  0  0  0  0  0  0  0  0  0
  -37.9510    3.5500    9.9220 C   0  0  0  0  0  0  0  0  0  0  0  0
  -36.8060    3.9670    9.3860 C   0  0  0  0  0  0  0  0  0  0  0  0
  -35.9140    3.0180    8.8260 O   0  0  0  0  0  0  0  0  0  0  0  0
  -34.7130    2.7570    9.5150 C   0  0  0  0  0  0  0  0  0  0  0  0
  2  1  1  0
  3  2  1  0
  4  3  1  0
  5  4  1  0
  6  5  2  0
  7  6  1  0
  8  7  2  0
  9  8  1  0
 10  5  1  0
 10  9  2  0
 11 10  1  0
 12 11  2  0
 13 12  1  0
 14 13  2  0
 15 14  1  0
 16 11  1  0
 16 15  2  0
 17 16  1  0
 17  9  1  0
 18  2  1  0
 19 18  1  0
 20 19  1  0
 21 20  1  0
 22 21  1  0
 23 22  1  0
 24 23  2  0
 25 24  1  0
 26 25  2  0
 27 26  1  0
 28 27  2  0
 28 23  1  0
 29 28  1  0
 30 29  1  0
M  CHG  1  19   1
M  END
>  <_TriposChargeType>  (1) 
GASTEIGER

$$$$
