2RH1_CAU_A408
     RDKit          3D

 22 24  0  0  0  0  0  0  0  0999 V2000
  -33.4790   10.9570    8.1680 O   0  0  0  0  0  0  0  0  0  0  0  0
  -32.2690   10.2300    8.0390 C   0  0  0  0  0  0  0  0  0  0  0  0
  -32.4800    8.9510    7.2230 C   0  0  0  0  0  0  0  0  0  0  0  0
  -33.7040    8.2500    7.5980 N   0  0  0  0  0  0  0  0  0  0  0  0
  -33.8080    6.8050    7.4960 C   0  0  0  0  0  0  0  0  0  0  0  0
  -33.5350    6.3860    6.0530 C   0  0  0  0  0  0  0  0  0  0  0  0
  -35.1860    6.3510    7.9850 C   0  0  0  0  0  0  0  0  0  0  0  0
  -31.2440   11.1050    7.3630 C   0  0  0  0  0  0  0  0  0  0  0  0
  -30.0510   10.3670    7.1810 O   0  0  0  0  0  0  0  0  0  0  0  0
  -28.9320   10.8570    6.5800 C   0  0  0  0  0  0  0  0  0  0  0  0
  -28.9120   12.1330    6.0040 C   0  0  0  0  0  0  0  0  0  0  0  0
  -27.7690   12.6280    5.3930 C   0  0  0  0  0  0  0  0  0  0  0  0
  -26.6090   11.8750    5.3320 C   0  0  0  0  0  0  0  0  0  0  0  0
  -26.5660   10.6250    5.8750 C   0  0  0  0  0  0  0  0  0  0  0  0
  -27.7700   10.1080    6.5160 C   0  0  0  0  0  0  0  0  0  0  0  0
  -25.5940    9.6570    5.9740 N   0  0  0  0  0  0  0  0  0  0  0  0
  -26.0980    8.5610    6.6370 C   0  0  0  0  0  0  0  0  0  0  0  0
  -27.4840    8.8630    6.9750 C   0  0  0  0  0  0  0  0  0  0  0  0
  -25.5910    7.3380    7.0090 C   0  0  0  0  0  0  0  0  0  0  0  0
  -26.3970    6.4320    7.6880 C   0  0  0  0  0  0  0  0  0  0  0  0
  -27.7190    6.7310    8.0050 C   0  0  0  0  0  0  0  0  0  0  0  0
  -28.2710    7.9480    7.6510 C   0  0  0  0  0  0  0  0  0  0  0  0
  2  1  1  0
  3  2  1  0
  4  3  1  0
  5  4  1  0
  5  6  1  0
  7  5  1  0
  8  2  1  0
  9  8  1  0
 10  9  1  0
 11 10  2  0
 12 11  1  0
 13 12  2  0
 14 13  1  0
 15 10  1  0
 15 14  2  0
 16 14  1  0
 17 16  1  0
 18 15  1  0
 18 17  2  0
 19 17  1  0
 20 19  2  0
 21 20  1  0
 22 21  2  0
 22 18  1  0
M  CHG  1   4   1
M  END
>  <_TriposChargeType>  (1) 
GASTEIGER

$$$$
