@<TRIPOS>MOLECULE
7XN1_THA_A601
 15 17 0 0 0
SMALL
GASTEIGER

@<TRIPOS>ATOM
      1 C          92.3710   80.4380  -10.5940 C.ar    1  UNL1        0.0015
      2 C          92.6580   81.0670   -9.3870 C.ar    1  UNL1        0.0191
      3 C          91.9630   80.7120   -8.2380 C.ar    1  UNL1        0.0822
      4 C          90.9230   79.6560   -8.3360 C.ar    1  UNL1        0.0341
      5 C          90.6690   79.0550   -9.5610 C.ar    1  UNL1        0.0028
      6 C          91.3940   79.4480  -10.6810 C.ar    1  UNL1        0.0001
      7 N          92.2360   81.3200   -7.0570 N.ar    1  UNL1       -0.2499
      8 C          91.5970   81.0230   -5.8980 C.ar    1  UNL1        0.0563
      9 C          90.5310   79.9810   -5.8560 C.ar    1  UNL1        0.0081
     10 C          90.1790   79.2740   -7.1120 C.ar    1  UNL1        0.0876
     11 C          91.9970   81.7750   -4.6470 C.3     1  UNL1        0.0455
     12 C          90.9420   81.6240   -3.5590 C.3     1  UNL1        0.0066
     13 C          90.5850   80.1570   -3.3710 C.3     1  UNL1        0.0052
     14 C          89.8080   79.6370   -4.5730 C.3     1  UNL1        0.0289
     15 N          89.2190   78.3190   -7.1370 N.pl3   1  UNL1       -0.1283
@<TRIPOS>BOND
     1     2     1   ar
     2     3     2   ar
     3     4     3   ar
     4     5     4   ar
     5     6     5   ar
     6     6     1   ar
     7     7     3   ar
     8     8     7   ar
     9     9     8   ar
    10    10     9   ar
    11    10     4   ar
    12    11     8    1
    13    12    11    1
    14    13    12    1
    15    14     9    1
    16    14    13    1
    17    15    10    1
