@<TRIPOS>MOLECULE
6WUY_ELT_A605
 8 7 0 0 0
SMALL
GASTEIGER

@<TRIPOS>ATOM
      1  P01       89.2690   83.6210  -12.4200 P.3   605  ELT605      0.2957
      2  O02       90.3710   84.3940  -12.1420 O.3   605  ELT605     -0.1587
      3  N03       88.1340   84.7240  -12.0440 N.3   605  ELT605     -0.2110
      4  C04       87.4360   84.6330  -10.8190 C.3   605  ELT605      0.0975
      5  C05       88.3190   86.0460  -12.5190 C.3   605  ELT605      0.0975
      6  O06       89.0940   82.6360  -11.2310 O.3   605  ELT605     -0.3061
      7  C07       90.0030   82.6340  -10.2190 C.3   605  ELT605      0.1499
      8  C08       89.6300   83.7100   -9.2440 C.3   605  ELT605      0.0351
@<TRIPOS>BOND
     1     5     3    1
     2     1     2    1
     3     1     3    1
     4     1     6    1
     5     3     4    1
     6     6     7    1
     7     7     8    1
