@<TRIPOS>MOLECULE
6NTO_L2Y_A605
 11 10 0 0 0
SMALL
GASTEIGER

@<TRIPOS>ATOM
      1  C01       90.7440   80.0850   -7.1180 C.3   605  L2Y605      0.0188
      2  C02       91.2220   81.1970   -8.0500 C.3   605  L2Y605      0.0733
      3  C04       91.1160   80.0550  -10.1490 C.3   605  L2Y605      0.0733
      4  C05       92.4850   80.4810  -10.6720 C.3   605  L2Y605      0.0188
      5  C06       90.5170   82.3740  -10.0360 C.3   605  L2Y605      0.1381
      6  C07       90.3730   83.4900   -9.0020 C.3   605  L2Y605      0.0373
      7  C11       88.0370   84.9100  -11.3320 C.3   605  L2Y605      0.0775
      8  N03       90.5350   81.1030   -9.3290 N.3   605  L2Y605     -0.2600
      9  N08       89.3360   82.3530  -10.8830 N.3   605  L2Y605     -0.1592
     10  O12       90.6820   84.3080  -12.3110 O.3   605  L2Y605     -0.1905
     11  P09       89.2220   83.6410  -11.9920 P.3   605  L2Y605      0.1726
@<TRIPOS>BOND
     1    10    11    1
     2    11     7    1
     3    11     9    1
     4     9     5    1
     5     4     3    1
     6     3     8    1
     7     5     8    1
     8     5     6    1
     9     8     2    1
    10     2     1    1
