@<TRIPOS>MOLECULE
6NTL_L1M_B604
 13 12 0 0 0
SMALL
GASTEIGER

@<TRIPOS>ATOM
      1 C          91.8360   79.8440  -10.2760 C.3     1  UNL1        0.2021
      2 C          90.0190   79.0440   -7.7110 C.3     1  UNL1        0.0551
      3 C          87.5480   85.5910  -12.5280 C.3     1  UNL1        0.0353
      4 C          88.0900   85.3320  -11.1300 C.3     1  UNL1        0.1536
      5 C          90.2680   81.7210   -9.7590 C.2     1  UNL1        0.3032
      6 C          89.4370   82.4930   -8.7340 C.3     1  UNL1        0.1298
      7 C          93.2260   80.4670  -10.3830 C.3     1  UNL1        0.0551
      8 C          91.0230   80.1790   -7.9170 C.3     1  UNL1        0.2021
      9 N          90.3310   82.0120  -10.9790 N.2     1  UNL1        0.0057
     10 N          91.0420   80.5810   -9.3130 N.pl3   1  UNL1       -0.1942
     11 O          88.2610   83.9570  -11.0080 O.3     1  UNL1       -0.2711
     12 O          90.6220   84.2560  -12.0080 O.2     1  UNL1       -0.2228
     13 P          89.5390   83.2850  -11.8030 P.3     1  UNL1        0.5462
@<TRIPOS>BOND
     1     4     3    1
     2     6     5    1
     3     7     1    1
     4     8     2    1
     5     9     5    2
     6    10     8    1
     7    10     5    1
     8    10     1    1
     9    11     4    1
    10    13    12    2
    11    13    11    1
    12    13     9    1
