@<TRIPOS>MOLECULE
7DHI_68H_R401
 17 17 0 0 0
SMALL
GASTEIGER

@<TRIPOS>ATOM
      1 O         -25.8160    9.3750    5.8100 O.3     1  UNL1       -0.2151
      2 C         -26.7050    9.0240    6.8220 C.3     1  UNL1        0.2118
      3 C         -27.8900    9.9140    6.7100 C.ar    1  UNL1        0.0493
      4 C         -27.7730   11.1650    6.1000 C.ar    1  UNL1        0.1941
      5 O         -26.5640   11.5630    5.6110 O.3     1  UNL1       -0.2868
      6 C         -28.8530   12.0300    5.9720 C.ar    1  UNL1        0.0415
      7 C         -30.0790   11.6240    6.4680 C.ar    1  UNL1        0.0015
      8 C         -29.1200    9.5230    7.1980 C.ar    1  UNL1       -0.0004
      9 C         -30.1960   10.3830    7.0700 C.ar    1  UNL1        0.0091
     10 C         -31.5010    9.9320    7.6110 C.3     1  UNL1        0.1915
     11 O         -32.4870   10.8760    7.3950 O.3     1  UNL1       -0.2167
     12 C         -31.8330    8.6130    6.9190 C.3     1  UNL1        0.1259
     13 N         -33.2080    8.2600    7.3160 N.3     1  UNL1       -0.2177
     14 C         -33.5490    6.8360    7.0730 C.3     1  UNL1        0.0596
     15 C         -34.9980    6.5220    7.4480 C.3     1  UNL1        0.0174
     16 C         -33.3590    6.4910    5.5980 C.3     1  UNL1        0.0174
     17 C         -32.6110    5.9730    7.9240 C.3     1  UNL1        0.0174
@<TRIPOS>BOND
     1     2     1    1
     2     3     2    1
     3     4     3   ar
     4     5     4    1
     5     6     4   ar
     6     7     6   ar
     7     8     3   ar
     8     9     8   ar
     9     9     7   ar
    10    10     9    1
    11    10    11    1
    12    12    10    1
    13    13    12    1
    14    14    13    1
    15    14    15    1
    16    16    14    1
    17    17    14    1
