@<TRIPOS>MOLECULE
2RH1_CAU_A408
 22 24 0 0 0
SMALL
GASTEIGER

@<TRIPOS>ATOM
      1 O         -33.4770   10.9570    8.1700 O.3     1  UNL1       -0.2176
      2 C         -32.2670   10.2300    8.0410 C.3     1  UNL1        0.2126
      3 C         -32.4780    8.9510    7.2250 C.3     1  UNL1        0.1253
      4 N         -33.7020    8.2500    7.6000 N.3     1  UNL1       -0.2167
      5 C         -33.8060    6.8050    7.4980 C.3     1  UNL1        0.0730
      6 C         -33.5330    6.3850    6.0550 C.3     1  UNL1        0.0188
      7 C         -35.1840    6.3500    7.9880 C.3     1  UNL1        0.0188
      8 C         -31.2420   11.1050    7.3640 C.3     1  UNL1        0.2395
      9 O         -30.0490   10.3670    7.1820 O.3     1  UNL1       -0.4726
     10 C         -28.9310   10.8570    6.5810 C.ar    1  UNL1        0.1401
     11 C         -28.9110   12.1330    6.0050 C.ar    1  UNL1        0.0370
     12 C         -27.7680   12.6280    5.3930 C.ar    1  UNL1        0.0047
     13 C         -26.6080   11.8750    5.3320 C.ar    1  UNL1        0.0193
     14 C         -26.5650   10.6250    5.8750 C.ar    1  UNL1        0.0842
     15 C         -27.7680   10.1080    6.5170 C.ar    1  UNL1        0.0530
     16 N         -25.5930    9.6570    5.9740 N.ar    1  UNL1       -0.2453
     17 C         -26.0960    8.5610    6.6370 C.ar    1  UNL1        0.0814
     18 C         -27.4820    8.8630    6.9760 C.ar    1  UNL1        0.0220
     19 C         -25.5890    7.3380    7.0090 C.ar    1  UNL1        0.0191
     20 C         -26.3950    6.4320    7.6890 C.ar    1  UNL1        0.0015
     21 C         -27.7170    6.7310    8.0060 C.ar    1  UNL1        0.0001
     22 C         -28.2690    7.9480    7.6520 C.ar    1  UNL1        0.0016
@<TRIPOS>BOND
     1     2     1    1
     2     3     2    1
     3     4     3    1
     4     5     4    1
     5     5     6    1
     6     7     5    1
     7     8     2    1
     8     9     8    1
     9    10     9    1
    10    11    10   ar
    11    12    11   ar
    12    13    12   ar
    13    14    13   ar
    14    15    10   ar
    15    15    14   ar
    16    16    14   ar
    17    17    16   ar
    18    18    15   ar
    19    18    17   ar
    20    19    17   ar
    21    20    19   ar
    22    21    20   ar
    23    22    21   ar
    24    22    18   ar
