@<TRIPOS>MOLECULE
9RKF_A1JHU_A520
 53 54 0 0 0
SMALL
GASTEIGER

@<TRIPOS>ATOM
      1  C16      -27.5880   12.5190    5.3440 C.ar  520  A1J520     -0.0582
      2  C13      -27.7060   10.0250    6.5420 C.ar  520  A1J520      0.1276
      3  C10      -28.4290    5.1570    9.0790 C.ar  520  A1J520     -0.0384
      4  C14      -28.7770   10.9070    6.6670 C.ar  520  A1J520      0.1476
      5  C18      -26.5910   10.3820    5.8190 C.ar  520  A1J520     -0.0309
      6  C26      -32.6440    5.9370    8.3290 C.3   520  A1J520     -0.0499
      7  C25      -33.4100    6.9690    7.5040 C.3   520  A1J520      0.0021
      8  C23      -32.3790    9.1160    7.3650 C.3   520  A1J520      0.0254
      9  C01      -29.0560    0.9350   10.5690 C.3   520  A1J520      0.0125
     10  C02      -28.9280    2.2800    9.8690 C.2   520  A1J520      0.2141
     11  C05      -27.4400    4.1790    9.0260 C.ar  520  A1J520      0.0335
     12  C06      -26.2650    4.4370    8.3290 C.ar  520  A1J520     -0.0384
     13  C07      -26.0830    5.6560    7.6920 C.ar  520  A1J520     -0.0328
     14  C08      -27.0760    6.6210    7.7510 C.ar  520  A1J520      0.0863
     15  C09      -28.2460    6.3740    8.4430 C.ar  520  A1J520     -0.0328
     16  C15      -28.7120   12.1530    6.0710 C.ar  520  A1J520     -0.0178
     17  C17      -26.5340   11.6340    5.2150 C.ar  520  A1J520     -0.0595
     18  C20      -31.0730   11.2130    7.2660 C.3   520  A1J520      0.1167
     19  C21      -32.1640   10.4620    8.0330 C.3   520  A1J520      0.1015
     20  C27      -34.8880    6.6150    7.3900 C.3   520  A1J520     -0.0499
     21  N04      -27.6180    2.8970    9.6930 N.am  520  A1J520     -0.2857
     22  N11      -26.9050    7.9010    7.0880 N.2   520  A1J520     -0.1492
     23  N12      -27.7940    8.7250    7.1700 N.2   520  A1J520     -0.1456
     24  N24      -33.3020    8.3040    8.1270 N.3   520  A1J520     -0.3112
     25  O03      -29.9120    2.8000    9.4710 O.2   520  A1J520     -0.2758
     26  O19      -29.9010   10.4990    7.4240 O.3   520  A1J520     -0.4872
     27  O22      -33.3660   11.1890    8.0050 O.3   520  A1J520     -0.3872
     28 H161      -27.5360   13.4960    4.8800 H     520  A1J520      0.0619
     29 H101      -29.3470    4.9640    9.6210 H     520  A1J520      0.0637
     30 H181      -25.7630    9.6930    5.7200 H     520  A1J520      0.0640
     31 H262      -32.8240    4.9450    7.9240 H     520  A1J520      0.0245
     32 H261      -32.9830    5.9740    9.3610 H     520  A1J520      0.0245
     33 H263      -31.5820    6.1570    8.2880 H     520  A1J520      0.0245
     34 H251      -32.9630    7.0030    6.5180 H     520  A1J520      0.0455
     35 H232      -31.4280    8.6000    7.2910 H     520  A1J520      0.0450
     36 H231      -32.7810    9.2730    6.3700 H     520  A1J520      0.0450
     37 H012      -30.0070    0.4810   10.3080 H     520  A1J520      0.0323
     38 H011      -29.0060    1.0810   11.6440 H     520  A1J520      0.0323
     39 H013      -28.2460    0.2850   10.2530 H     520  A1J520      0.0323
     40 H061      -25.4890    3.6840    8.2830 H     520  A1J520      0.0637
     41 H071      -25.1670    5.8530    7.1500 H     520  A1J520      0.0640
     42 H091      -29.0190    7.1330    8.4890 H     520  A1J520      0.0640
     43 H151      -29.5390   12.8440    6.1730 H     520  A1J520      0.0655
     44 H171      -25.6600   11.9170    4.6410 H     520  A1J520      0.0618
     45 H202      -31.3330   11.2720    6.2140 H     520  A1J520      0.0723
     46 H201      -30.9560   12.2130    7.6710 H     520  A1J520      0.0723
     47 H211      -31.8590   10.3330    9.0640 H     520  A1J520      0.0640
     48 H271      -35.3440    6.6400    8.3750 H     520  A1J520      0.0245
     49 H272      -34.9900    5.6190    6.9680 H     520  A1J520      0.0245
     50 H273      -35.3830    7.3340    6.7430 H     520  A1J520      0.0245
     51 H041      -26.8110    2.4210   10.0450 H     520  A1J520      0.1548
     52  H1       -32.9670    8.2080    9.0650 H     520  A1J520      0.1223
     53 H221      -33.2050   12.0700    8.3060 H     520  A1J520      0.2100
@<TRIPOS>BOND
     1    44    17    1
     2    28     1    1
     3    17     1   ar
     4    17     5   ar
     5     1    16   ar
     6    30     5    1
     7     5     2   ar
     8    16    43    1
     9    16     4   ar
    10    45    18    1
    11    36     8    1
    12    34     7    1
    13     2     4   ar
    14     2    23    1
    15     4    26    1
    16    50    20    1
    17    49    20    1
    18    22    23    2
    19    22    14    1
    20    41    13    1
    21    18    26    1
    22    18    46    1
    23    18    19    1
    24    35     8    1
    25     8    19    1
    26     8    24    1
    27    20     7    1
    28    20    48    1
    29     7    24    1
    30     7     6    1
    31    13    14   ar
    32    13    12   ar
    33    14    15   ar
    34    31     6    1
    35    27    19    1
    36    27    53    1
    37    19    47    1
    38    24    52    1
    39    40    12    1
    40    33     6    1
    41     6    32    1
    42    12    11   ar
    43    15    42    1
    44    15     3   ar
    45    11     3   ar
    46    11    21    1
    47     3    29    1
    48    25    10    2
    49    21    10   am
    50    21    51    1
    51    10     9    1
    52    39     9    1
    53    37     9    1
    54     9    38    1
