@<TRIPOS>MOLECULE
6MXT_K5Y_A1401
 30 31 0 0 0
SMALL
GASTEIGER

@<TRIPOS>ATOM
      1 C         -29.1210    1.3700   13.0160 C.ar    1  UNL1       -0.0043
      2 C         -28.8590    0.7680   14.2430 C.ar    1  UNL1       -0.0003
      3 C         -28.9080   -0.6150   14.3650 C.ar    1  UNL1       -0.0000
      4 C         -29.2230   -1.3940   13.2600 C.ar    1  UNL1       -0.0003
      5 C         -29.4860   -0.7940   12.0330 C.ar    1  UNL1       -0.0043
      6 C         -29.4370    0.5900   11.9090 C.ar    1  UNL1       -0.0222
      7 C         -29.7040    1.1840   10.6800 C.3     1  UNL1        0.0264
      8 C         -31.0940    0.7530   10.1920 C.3     1  UNL1        0.0073
      9 C         -32.1720    1.3500   11.1030 C.3     1  UNL1        0.0324
     10 C         -33.5580    1.0000   10.5630 C.3     1  UNL1        0.1422
     11 O         -33.8150    1.7510    9.3760 O.3     1  UNL1       -0.3538
     12 C         -35.2240    1.9540    9.2570 C.3     1  UNL1        0.1422
     13 C         -35.4970    2.8780    8.0730 C.3     1  UNL1        0.0321
     14 C         -34.7570    4.1990    8.2980 C.3     1  UNL1        0.0026
     15 C         -35.0680    5.1650    7.1510 C.3     1  UNL1        0.0016
     16 C         -34.6680    6.5880    7.5460 C.3     1  UNL1        0.0188
     17 C         -33.2250    6.8770    7.1140 C.3     1  UNL1        0.0888
     18 N         -32.8430    8.2640    7.4360 N.3     1  UNL1       -0.2150
     19 C         -31.5010    8.5780    6.9220 C.3     1  UNL1        0.1260
     20 C         -30.9830    9.8750    7.5550 C.3     1  UNL1        0.1915
     21 O         -31.9340   10.9070    7.3000 O.3     1  UNL1       -0.2167
     22 C         -29.7650   10.2020    6.9760 C.ar    1  UNL1        0.0091
     23 C         -28.6520    9.3850    7.1700 C.ar    1  UNL1       -0.0004
     24 C         -29.6680   11.3470    6.1950 C.ar    1  UNL1        0.0015
     25 C         -28.4520   11.6790    5.6090 C.ar    1  UNL1        0.0415
     26 C         -27.3490   10.8630    5.8080 C.ar    1  UNL1        0.1941
     27 O         -26.1400   11.1500    5.2540 O.3     1  UNL1       -0.2868
     28 C         -27.4360    9.7150    6.5840 C.ar    1  UNL1        0.0493
     29 C         -26.3170    8.9120    6.7680 C.3     1  UNL1        0.2118
     30 O         -26.1910    8.0300    5.6500 O.3     1  UNL1       -0.2151
@<TRIPOS>BOND
     1     2     1   ar
     2     3     2   ar
     3     4     3   ar
     4     5     4   ar
     5     6     5   ar
     6     6     1   ar
     7     7     6    1
     8     8     7    1
     9     9     8    1
    10    10     9    1
    11    11    10    1
    12    12    11    1
    13    13    12    1
    14    14    13    1
    15    15    14    1
    16    16    15    1
    17    17    16    1
    18    18    17    1
    19    19    18    1
    20    20    19    1
    21    20    21    1
    22    22    20    1
    23    23    22   ar
    24    24    22   ar
    25    25    24   ar
    26    26    25   ar
    27    27    26    1
    28    28    26   ar
    29    28    23   ar
    30    29    28    1
    31    30    29    1
