@<TRIPOS>MOLECULE
8QFK_UII_AAA301
 28 29 0 0 0
SMALL
GASTEIGER

@<TRIPOS>ATOM
      1 C          -1.4530    4.9140   13.1330 C.3     1  UNL1        0.1221
      2 C          -2.2240    6.8650   14.5580 C.ar    1  UNL1       -0.0028
      3 C          -2.0670    8.1580   15.0140 C.ar    1  UNL1        0.0010
      4 C          -0.5000    8.5880   13.2690 C.ar    1  UNL1        0.0657
      5 C           1.2200    8.9730   11.5700 C.3     1  UNL1        0.2257
      6 C           2.3210    8.3560   12.4040 C.2     1  UNL1        0.3864
      7 C          -3.8900    4.9140   12.6660 C.3     1  UNL1        0.1221
      8 C          -4.2940    4.1360   13.9150 C.ar    1  UNL1       -0.0044
      9 C          -3.9340    2.1970   15.2770 C.ar    1  UNL1        0.0197
     10 C          -5.2560    2.2450   15.7010 C.ar    1  UNL1        0.1250
     11 N          -5.3730   -0.4010   16.1790 N.3     1  UNL1        0.0392
     12 O          -2.9900    4.0250    9.7820 O.2     1  UNL1       -0.1572
     13 S          -2.0940    3.6480   10.8370 S.O2    1  UNL1        0.0463
     14 O          -2.1090    2.2750   11.2920 O.2     1  UNL1       -0.1572
     15 C          -0.4440    3.9920   10.3710 C.3     1  UNL1        0.1960
     16 N          -2.5110    4.5920   12.1480 N.3     1  UNL1       -0.1505
     17 C          -5.5420    4.2740   14.4830 C.ar    1  UNL1       -0.0015
     18 C          -6.0240    3.3270   15.3770 C.ar    1  UNL1        0.0197
     19 S          -5.8600    0.9800   16.7690 S.O2    1  UNL1        0.0935
     20 O          -5.2330    1.2130   18.0550 O.2     1  UNL1       -0.1503
     21 O          -7.3000    1.0890   16.7010 O.2     1  UNL1       -0.1503
     22 C          -3.4700    3.1370   14.3890 C.ar    1  UNL1       -0.0015
     23 C          -1.4620    6.3820   13.5010 C.ar    1  UNL1       -0.0032
     24 C          -0.6180    7.2650   12.8460 C.ar    1  UNL1        0.0132
     25 C          -1.1700    9.0120   14.4070 C.ar    1  UNL1        0.0161
     26 N           0.2010    9.4570   12.4670 N.pl3   1  UNL1       -0.2257
     27 O           2.8190    8.8410   13.4730 O.co2   1  UNL1       -0.2437
     28 O           2.7030    7.2160   11.8460 O.co2   1  UNL1       -0.2437
@<TRIPOS>BOND
     1     3     2   ar
     2     6     5    1
     3     8     7    1
     4    10     9   ar
     5    13    12    2
     6    14    13    2
     7    13    15    1
     8    16    13    1
     9    16     7    1
    10    16     1    1
    11    17     8   ar
    12    18    17   ar
    13    18    10   ar
    14    19    11    1
    15    19    10    1
    16    20    19    2
    17    21    19    2
    18    22     9   ar
    19    22     8   ar
    20    23     1    1
    21    23     2   ar
    22    24    23   ar
    23    24     4   ar
    24    25     4   ar
    25    25     3   ar
    26    26     5    1
    27    26     4    1
    28    27     6   ar
    29    28     6   ar
