@<TRIPOS>MOLECULE
6ROB_KBZ_A306
 12 12 0 0 0
SMALL
GASTEIGER

@<TRIPOS>ATOM
      1 C          -5.2530    2.3420   15.8470 C.ar    1  UNL1        0.1251
      2 C          -6.0890    3.4000   15.5170 C.ar    1  UNL1        0.0207
      3 C          -5.5690    4.5120   14.8820 C.ar    1  UNL1        0.0116
      4 N          -5.3650   -0.3650   16.0770 N.3     1  UNL1        0.0392
      5 N          -3.2050    6.6750   13.4710 N.1     1  UNL1       -0.1908
      6 C          -3.6660    5.7530   13.9560 C.1     1  UNL1        0.1004
      7 O          -7.3280    1.0460   16.6240 O.2     1  UNL1       -0.1503
      8 C          -4.2120    4.5770   14.5830 C.ar    1  UNL1        0.0685
      9 C          -3.3820    3.5120   14.9150 C.ar    1  UNL1        0.0116
     10 C          -3.8980    2.3940   15.5450 C.ar    1  UNL1        0.0207
     11 O          -5.3490    1.1000   18.0900 O.2     1  UNL1       -0.1503
     12 S          -5.8990    0.9630   16.7550 S.O2    1  UNL1        0.0935
@<TRIPOS>BOND
     1     2     1   ar
     2     3     2   ar
     3     6     5    3
     4     8     3   ar
     5     8     6    1
     6     9     8   ar
     7    10     9   ar
     8    10     1   ar
     9    12     7    2
    10    12     4    1
    11    12     1    1
    12    12    11    2
