@<TRIPOS>MOLECULE
6JUH_G3P_C1305
 10 9 0 0 0
SMALL
GASTEIGER

@<TRIPOS>ATOM
      1 O          22.8200  161.0300   11.1030 O.3     1  UNL1       -0.2175
      2 C          22.1800  161.8120   12.0810 C.3     1  UNL1        0.2174
      3 C          20.9880  161.0230   12.6180 C.3     1  UNL1        0.2147
      4 O          20.5370  161.6250   13.7960 O.3     1  UNL1       -0.2176
      5 C          19.8550  160.9670   11.5910 C.3     1  UNL1        0.1892
      6 O          20.4110  160.7350   10.3250 O.3     1  UNL1       -0.2674
      7 O          21.7710  162.1040    8.5660 O.3     1  UNL1       -0.1145
      8 O          19.5020  161.4060    8.0020 O.3     1  UNL1       -0.1145
      9 O          19.9040  163.1880    9.8170 O.2     1  UNL1       -0.2224
     10 P          20.3830  161.9030    9.1480 P.3     1  UNL1        0.5327
@<TRIPOS>BOND
     1     2     1    1
     2     3     2    1
     3     3     4    1
     4     5     3    1
     5     6     5    1
     6    10     9    2
     7    10     8    1
     8    10     7    1
     9    10     6    1
