@<TRIPOS>MOLECULE
8RU8_I74_A301
 60 63 0 0 0
SMALL
GASTEIGER

@<TRIPOS>ATOM
      1  O1         5.5930  -20.5960  -20.4960 O.3   301  I74301     -0.3933
      2  C42        4.4570  -21.4070  -20.1990 C.3   301  I74301      0.0444
      3  C43        4.1630  -21.2920  -18.7150 C.3   301  I74301     -0.0664
      4  N44        3.0540  -22.2030  -18.3330 N.4   301  I74301      0.3807
      5  C45        1.8030  -21.8880  -19.0710 C.3   301  I74301     -0.0929
      6  C46        2.0490  -21.9410  -20.5760 C.3   301  I74301     -0.0619
      7  C41        3.2000  -21.0190  -20.9770 C.3   301  I74301     -0.0029
      8  C40        3.4180  -21.0420  -22.4900 C.3   301  I74301      0.0155
      9  N18        3.9040  -22.3330  -22.9350 N.pl3 301  I74301     -0.3286
     10  C5         5.1930  -22.6240  -23.2620 C.ar  301  I74301      0.1244
     11  C4         5.4190  -23.7810  -24.0100 C.ar  301  I74301      0.0180
     12  C3         6.7010  -24.1180  -24.4010 C.ar  301  I74301      0.1260
     13  N2         7.6910  -23.2330  -24.0640 N.ar  301  I74301     -0.2003
     14  N1         9.0170  -23.3800  -24.3550 N.ar  301  I74301     -0.1714
     15  C9         9.5810  -22.3450  -23.7670 C.ar  301  I74301      0.0554
     16  C8         8.7110  -21.5070  -23.0820 C.ar  301  I74301      0.0192
     17  C26        9.1080  -20.3010  -22.2560 C.3   301  I74301     -0.0165
     18  C28        8.1850  -19.1100  -22.4220 C.3   301  I74301     -0.0585
     19  C27        9.2060  -20.6680  -20.7720 C.3   301  I74301     -0.0585
     20  C7         7.4440  -22.1280  -23.2670 C.ar  301  I74301      0.1629
     21  N6         6.1990  -21.8060  -22.8710 N.ar  301  I74301     -0.2129
     22  N10        7.0700  -25.2120  -25.1310 N.pl3 301  I74301     -0.3248
     23  C11        6.2380  -26.3990  -25.2650 C.3   301  I74301      0.0357
     24  C12        5.2680  -26.3160  -26.4140 C.ar  301  I74301     -0.0304
     25  C17        5.6990  -26.4970  -27.7130 C.ar  301  I74301     -0.0571
     26  C16        4.8120  -26.4590  -28.7620 C.ar  301  I74301     -0.0615
     27  C15        3.4810  -26.2230  -28.5220 C.ar  301  I74301     -0.0617
     28  C14        3.0340  -26.0510  -27.2360 C.ar  301  I74301     -0.0615
     29  C13        3.9220  -26.1020  -26.1880 C.ar  301  I74301     -0.0571
     30  H1         6.2610  -20.8850  -20.0500 H     301  I74301      0.2097
     31  H2         4.6750  -22.3450  -20.4050 H     301  I74301      0.0577
     32  H3         4.9650  -21.5250  -18.2020 H     301  I74301      0.0079
     33  H4         3.9130  -20.3690  -18.4980 H     301  I74301      0.0079
     34  H5         3.3010  -23.0680  -18.5160 H     301  I74301     -0.0858
     35  H7         1.1080  -22.5350  -18.8270 H     301  I74301      0.0054
     36  H8         1.4930  -20.9900  -18.8180 H     301  I74301      0.0054
     37  H9         2.2630  -22.8610  -20.8390 H     301  I74301      0.0251
     38  H10        1.2330  -21.6690  -21.0500 H     301  I74301      0.0251
     39  H11        2.9570  -20.0970  -20.7190 H     301  I74301      0.0339
     40  H12        4.0690  -20.3420  -22.7330 H     301  I74301      0.0465
     41  H13        2.5650  -20.8410  -22.9420 H     301  I74301      0.0465
     42  H14        3.3140  -22.9640  -23.0580 H     301  I74301      0.1475
     43  H15        4.6820  -24.3290  -24.2750 H     301  I74301      0.0686
     44  H16       10.5180  -22.2280  -23.7890 H     301  I74301      0.0851
     45  H17       10.0060  -20.0230  -22.5510 H     301  I74301      0.0345
     46  H18        7.3020  -19.3300  -22.0660 H     301  I74301      0.0235
     47  H19        8.5510  -18.3440  -21.9360 H     301  I74301      0.0235
     48  H20        8.1080  -18.8870  -23.3670 H     301  I74301      0.0235
     49  H21        9.6860  -21.5170  -20.6770 H     301  I74301      0.0235
     50  H22        9.6900  -19.9650  -20.2940 H     301  I74301      0.0235
     51  H23        8.3070  -20.7560  -20.3980 H     301  I74301      0.0235
     52  H24        7.8480  -25.2130  -25.5240 H     301  I74301      0.1478
     53  H25        6.8190  -27.1830  -25.3930 H     301  I74301      0.0511
     54  H26        5.7320  -26.5320  -24.4300 H     301  I74301      0.0511
     55  H27        6.6250  -26.6590  -27.8830 H     301  I74301      0.0621
     56  H28        5.1240  -26.5690  -29.6570 H     301  I74301      0.0618
     57  H29        2.8650  -26.1850  -29.2510 H     301  I74301      0.0618
     58  H30        2.1070  -25.8910  -27.0680 H     301  I74301      0.0618
     59  H31        3.6080  -25.9820  -25.2950 H     301  I74301      0.0621
     60  H32        2.8990  -22.1310  -17.4300 H     301  I74301     -0.0858
@<TRIPOS>BOND
     1    56    26    1
     2    57    27    1
     3    26    27   ar
     4    26    25   ar
     5    27    28   ar
     6    55    25    1
     7    25    24   ar
     8    28    58    1
     9    28    29   ar
    10    24    29   ar
    11    24    23    1
    12    29    59    1
    13    52    22    1
    14    53    23    1
    15    23    22    1
    16    23    54    1
    17    22    12    1
    18    12    13   ar
    19    12    11   ar
    20    14    13   ar
    21    14    15   ar
    22    43    11    1
    23    13    20   ar
    24    11    10   ar
    25    44    15    1
    26    15    16   ar
    27    48    18    1
    28    20    16   ar
    29    20    21   ar
    30    10     9    1
    31    10    21   ar
    32    16    17    1
    33    42     9    1
    34    41     8    1
    35     9     8    1
    36    40     8    1
    37    45    17    1
    38     8     7    1
    39    18    17    1
    40    18    46    1
    41    18    47    1
    42    17    19    1
    43    38     6    1
    44     7    39    1
    45     7     6    1
    46     7     2    1
    47    37     6    1
    48    19    49    1
    49    19    51    1
    50    19    50    1
    51     6     5    1
    52     1     2    1
    53     1    30    1
    54    31     2    1
    55     2     3    1
    56     5    35    1
    57     5    36    1
    58     5     4    1
    59     3    33    1
    60     3     4    1
    61     3    32    1
    62    34     4    1
    63     4    60    1
