@<TRIPOS>MOLECULE
6Q3B_PYZ_A301
 6 6 0 0 0
SMALL
GASTEIGER

@<TRIPOS>ATOM
      1 N           8.1260  -23.2300  -24.8460 N.ar    1  UNL1       -0.1458
      2 N           9.4450  -23.2730  -24.6850 N.ar    1  UNL1       -0.1458
      3 C           9.8600  -22.4960  -23.6750 C.ar    1  UNL1        0.1295
      4 C           8.7620  -21.9600  -23.1150 C.ar    1  UNL1        0.0719
      5 I           8.7700  -20.7260  -21.4540 I       1  UNL1       -0.0392
      6 C           7.6770  -22.4900  -23.8230 C.ar    1  UNL1        0.1295
@<TRIPOS>BOND
     1     2     1   ar
     2     3     2   ar
     3     4     3   ar
     4     5     4    1
     5     6     4   ar
     6     6     1   ar
