@<TRIPOS>MOLECULE
3RAI_X85_A923
 30 32 0 0 0
SMALL
GASTEIGER

@<TRIPOS>ATOM
      1 C           5.4070  -23.7820  -22.9390 C.ar    1  UNL1        0.0386
      2 C           4.9050  -22.6170  -22.2890 C.ar    1  UNL1        0.1360
      3 C           5.7300  -21.4430  -22.1750 C.ar    1  UNL1        0.3047
      4 C           7.0680  -21.4720  -22.7130 C.ar    1  UNL1        0.0826
      5 C           7.5790  -22.6490  -23.3670 C.ar    1  UNL1        0.0777
      6 C           6.7400  -23.8150  -23.4870 C.ar    1  UNL1        0.0718
      7 C           8.9680  -22.6460  -23.9020 C.2     1  UNL1        0.2856
      8 N           9.8820  -21.8790  -23.2030 N.am    1  UNL1       -0.0837
      9 O           9.3300  -23.2900  -24.8700 O.2     1  UNL1       -0.2666
     10 N           5.2640  -20.2940  -21.5580 N.pl3   1  UNL1        0.0823
     11 O           6.0250  -19.3180  -21.4990 O.2     1  UNL1        0.0415
     12 O           4.1020  -20.2800  -21.0970 O.co2   1  UNL1       -0.5760
     13 N           7.2190  -24.9650  -24.1290 N.pl3   1  UNL1       -0.2326
     14 C           6.4350  -26.1980  -24.2990 C.3     1  UNL1        0.1401
     15 N           3.6110  -22.6260  -21.7640 N.pl3   1  UNL1       -0.2317
     16 C           2.4500  -22.9600  -22.5660 C.3     1  UNL1        0.1139
     17 C           1.9350  -24.3070  -22.0980 C.3     1  UNL1        0.0406
     18 C           0.8410  -24.8100  -23.0190 C.3     1  UNL1        0.0741
     19 C          -0.2560  -28.4810  -23.0620 C.3     1  UNL1        0.1595
     20 C           0.1860  -27.1190  -23.6390 C.3     1  UNL1        0.1046
     21 N           0.4190  -26.1080  -22.4880 N.3     1  UNL1       -0.2684
     22 C          -0.8540  -25.9280  -21.6160 C.3     1  UNL1        0.1046
     23 C          -1.3060  -27.2890  -21.0380 C.3     1  UNL1        0.1595
     24 O          -0.3550  -28.4170  -21.5100 O.3     1  UNL1       -0.3508
     25 C           3.5210  -25.7900  -27.5500 C.ar    1  UNL1        0.0989
     26 N           4.8810  -25.3960  -27.7520 N.ar    1  UNL1       -0.2426
     27 C           5.8390  -25.5250  -26.7090 C.ar    1  UNL1        0.0963
     28 C           5.4330  -26.0530  -25.4450 C.ar    1  UNL1        0.0185
     29 C           4.0760  -26.4450  -25.2460 C.ar    1  UNL1        0.0006
     30 C           3.1170  -26.3150  -26.2960 C.ar    1  UNL1        0.0204
@<TRIPOS>UNITY_ATOM_ATTR
10 1
charge 1
12 1
charge -1
@<TRIPOS>BOND
     1     2     1   ar
     2     3     2   ar
     3     4     3   ar
     4     5     4   ar
     5     6     1   ar
     6     6     5   ar
     7     7     5    1
     8     8     7   am
     9     9     7    2
    10    10     3    1
    11    11    10    2
    12    12    10    1
    13    13     6    1
    14    14    13    1
    15    15     2    1
    16    16    15    1
    17    17    16    1
    18    18    17    1
    19    20    19    1
    20    21    20    1
    21    21    18    1
    22    22    21    1
    23    23    22    1
    24    24    19    1
    25    24    23    1
    26    26    25   ar
    27    27    26   ar
    28    28    27   ar
    29    28    14    1
    30    29    28   ar
    31    30    25   ar
    32    30    29   ar
