@<TRIPOS>MOLECULE
3QWJ_X6A_A483
 22 23 0 0 0
SMALL
GASTEIGER

@<TRIPOS>ATOM
      1 N           7.1530  -24.2410  -24.2810 N.pl3   1  UNL1       -0.2325
      2 N          10.2640  -21.8410  -23.0610 N.am    1  UNL1       -0.0837
      3 N           2.9550  -25.4470  -26.0820 N.ar    1  UNL1       -0.2098
      4 N           4.7340  -25.2960  -27.7160 N.ar    1  UNL1       -0.2098
      5 N           6.0640  -19.4430  -21.8080 N.pl3   1  UNL1        0.0818
      6 N           2.5560  -25.3280  -28.2840 N.pl3   1  UNL1       -0.0860
      7 C           7.6260  -20.9140  -22.7770 C.ar    1  UNL1        0.0821
      8 C           7.9380  -22.1570  -23.4250 C.ar    1  UNL1        0.0776
      9 C           6.8910  -23.0980  -23.6960 C.ar    1  UNL1        0.0714
     10 C           5.5600  -22.7590  -23.3250 C.ar    1  UNL1        0.0338
     11 C           5.2500  -21.5410  -22.6980 C.ar    1  UNL1        0.1281
     12 C           6.2910  -20.5840  -22.4000 C.ar    1  UNL1        0.3005
     13 C           9.2430  -22.4070  -23.7740 C.2     1  UNL1        0.2856
     14 C           6.2710  -25.4420  -24.2090 C.3     1  UNL1        0.1416
     15 C           5.2730  -25.4180  -25.3350 C.ar    1  UNL1        0.0378
     16 C           3.8970  -25.4760  -25.1000 C.ar    1  UNL1        0.1009
     17 C           3.4200  -25.3570  -27.3560 C.ar    1  UNL1        0.2566
     18 C           5.6390  -25.3270  -26.6840 C.ar    1  UNL1        0.1009
     19 O           9.5020  -23.1150  -24.7300 O.2     1  UNL1       -0.2666
     20 O           4.8680  -19.0830  -21.4160 O.2     1  UNL1        0.0415
     21 O           7.0440  -18.6100  -21.5760 O.co2   1  UNL1       -0.5760
     22 CL          3.6100  -21.2720  -22.3360 Cl      1  UNL1       -0.0758
@<TRIPOS>UNITY_ATOM_ATTR
5 1
charge 1
21 1
charge -1
@<TRIPOS>BOND
     1     8     7   ar
     2     9     8   ar
     3     9     1    1
     4    10     9   ar
     5    11    10   ar
     6    12    11   ar
     7    12     7   ar
     8    12     5    1
     9    13     8    1
    10    13     2   am
    11    14     1    1
    12    15    14    1
    13    16    15   ar
    14    16     3   ar
    15    17     6    1
    16    17     4   ar
    17    17     3   ar
    18    18     4   ar
    19    18    15   ar
    20    19    13    2
    21    20     5    2
    22    21     5    1
    23    22    11    1
