@<TRIPOS>MOLECULE
3QZG_X67_A471
 16 17 0 0 0
SMALL
GASTEIGER

@<TRIPOS>ATOM
      1 C           5.9140  -25.0840  -24.7670 C.ar    1  UNL1        0.2604
      2 N           6.1770  -25.9190  -25.7920 N.pl3   1  UNL1       -0.0859
      3 N           6.8860  -24.2640  -24.3060 N.ar    1  UNL1       -0.1918
      4 C           6.6710  -23.3960  -23.2610 C.ar    1  UNL1        0.1713
      5 C           7.6900  -22.5850  -22.8060 C.ar    1  UNL1        0.0771
      6 C           7.4570  -21.6850  -21.6950 C.ar    1  UNL1        0.0359
      7 C           8.4850  -20.8510  -21.1880 C.ar    1  UNL1        0.1404
      8 F           8.2340  -20.0230  -20.1430 F       1  UNL1       -0.2042
      9 C           9.7780  -20.8810  -21.7620 C.ar    1  UNL1        0.0329
     10 C          10.0560  -21.7430  -22.8520 C.ar    1  UNL1        0.0444
     11 C           9.0380  -22.6050  -23.4010 C.ar    1  UNL1        0.1987
     12 O           9.2990  -23.3760  -24.3810 O.3     1  UNL1       -0.2865
     13 N           5.4150  -23.3780  -22.6830 N.ar    1  UNL1       -0.1918
     14 C           4.4210  -24.2100  -23.1450 C.ar    1  UNL1        0.2604
     15 N           3.2490  -24.1900  -22.6020 N.pl3   1  UNL1       -0.0859
     16 N           4.6800  -25.0600  -24.1870 N.ar    1  UNL1       -0.1756
@<TRIPOS>BOND
     1     2     1    1
     2     3     1   ar
     3     4     3   ar
     4     5     4    1
     5     6     5   ar
     6     7     6   ar
     7     8     7    1
     8     9     7   ar
     9    10     9   ar
    10    11     5   ar
    11    11    10   ar
    12    12    11    1
    13    13     4   ar
    14    14    13   ar
    15    15    14    1
    16    16    14   ar
    17    16     1   ar
