@<TRIPOS>MOLECULE
8FOW_1QK_A303
 29 32 0 0 0
SMALL
GASTEIGER

@<TRIPOS>ATOM
      1 C           5.7820  -24.2980  -23.4120 C.ar    1  UNL1        0.0701
      2 N           7.3440  -25.4760  -24.9250 N.pl3   1  UNL1       -0.2151
      3 C           6.5390  -26.6810  -25.0060 C.3     1  UNL1        0.1464
      4 C           5.8230  -26.1930  -27.3360 C.ar    1  UNL1        0.0102
      5 C           3.5510  -26.1600  -27.9710 C.ar    1  UNL1        0.3492
      6 C           3.3750  -24.1490  -21.7200 C.3     1  UNL1        0.0921
      7 C           1.6670  -22.4530  -21.1390 C.3     1  UNL1        0.0035
      8 C           4.0650  -21.7280  -21.1710 C.3     1  UNL1        0.0767
      9 C           5.7340  -22.2070  -19.3010 C.3     1  UNL1        0.1838
     10 C          10.1050  -20.5350  -21.2770 C.3     1  UNL1        0.0052
     11 C           9.1880  -20.2410  -22.4550 C.3     1  UNL1        0.0311
     12 C           8.7300  -21.5530  -23.0930 C.ar    1  UNL1        0.0346
     13 C           9.7090  -22.1110  -23.9120 C.ar    1  UNL1        0.1193
     14 N           9.2010  -23.2660  -24.4110 N.ar    1  UNL1       -0.1613
     15 N           7.9010  -23.4200  -23.9160 N.ar    1  UNL1       -0.1974
     16 C           7.6490  -22.3870  -23.0980 C.ar    1  UNL1        0.1641
     17 N           6.4550  -22.2590  -22.4500 N.ar    1  UNL1       -0.2120
     18 C           5.5570  -23.2210  -22.6060 C.ar    1  UNL1        0.1361
     19 C           6.9750  -24.3840  -24.0530 C.ar    1  UNL1        0.1537
     20 C           5.4670  -26.4980  -26.0640 C.ar    1  UNL1        0.0743
     21 C           4.8830  -26.0200  -28.3010 C.ar    1  UNL1        0.0807
     22 N           3.1950  -26.4580  -26.6970 N.ar    1  UNL1        0.0925
     23 C           4.1330  -26.6280  -25.7290 C.ar    1  UNL1        0.3465
     24 O           1.8350  -26.5810  -26.3640 O.3     1  UNL1        0.0338
     25 N           4.3260  -23.0080  -21.8740 N.pl3   1  UNL1       -0.2947
     26 C           1.9600  -23.6510  -21.9750 C.3     1  UNL1        0.0215
     27 C           2.6110  -21.3270  -21.3990 C.3     1  UNL1        0.0199
     28 C           4.2900  -21.8610  -19.6620 C.3     1  UNL1        0.0553
     29 O           6.6150  -21.2500  -19.8460 O.3     1  UNL1       -0.2204
@<TRIPOS>UNITY_ATOM_ATTR
22 1
charge 1
@<TRIPOS>BOND
     1     3     2    1
     2    11    10    1
     3    12    11    1
     4    13    12   ar
     5    14    13   ar
     6    15    14   ar
     7    16    15   ar
     8    16    12   ar
     9    17    16   ar
    10    18    17   ar
    11    18     1   ar
    12    19    15   ar
    13    19     2    1
    14    19     1   ar
    15    20     4   ar
    16    20     3    1
    17    21     5   ar
    18    21     4   ar
    19    22     5   ar
    20    23    22   ar
    21    23    20   ar
    22    24    22    1
    23    25     6    1
    24    25     8    1
    25    25    18    1
    26    26     7    1
    27    26     6    1
    28    27     7    1
    29    27     8    1
    30     8    28    1
    31    28     9    1
    32    29     9    1
