@<TRIPOS>MOLECULE
4FKT_48K_A301
 49 51 0 0 0
SMALL
GASTEIGER

@<TRIPOS>ATOM
      1 S           2.7970  -28.3380  -25.8880 S.O2    1  UNL1        0.0584
      2 C           0.6430  -24.8310  -29.7720 C.3     1  UNL1       -0.0130
      3 O           2.8500  -29.2670  -24.7980 O.2     1  UNL1       -0.1530
      4 C          -0.7550  -26.5670  -28.7700 C.3     1  UNL1       -0.0130
      5 N           1.3250  -27.6740  -25.8680 N.3     1  UNL1       -0.1887
      6 O           3.0340  -28.8080  -27.2190 O.2     1  UNL1       -0.1530
      7 C           1.3960  -25.9500  -27.7000 C.3     1  UNL1        0.0125
      8 N           6.8230  -24.1800  -24.6270 N.pl3   1  UNL1       -0.3198
      9 O           9.4590  -23.2900  -24.8690 O.2     1  UNL1       -0.2698
     10 C           1.0610  -26.2810  -26.2560 C.3     1  UNL1        0.0302
     11 N           9.9570  -21.7370  -23.1840 N.am    1  UNL1       -0.2809
     12 C           3.9630  -27.0750  -25.5390 C.ar    1  UNL1        0.1054
     13 C           4.9290  -26.7540  -26.4770 C.ar    1  UNL1       -0.0336
     14 C           5.8930  -25.8150  -26.1610 C.ar    1  UNL1       -0.0387
     15 C           5.8530  -25.1590  -24.9390 C.ar    1  UNL1        0.0310
     16 C           6.7700  -23.3310  -23.6140 C.2     1  UNL1        0.0065
     17 C           7.8050  -22.5020  -23.2550 C.2     1  UNL1        0.0596
     18 C           9.1700  -22.5800  -23.8930 C.2     1  UNL1        0.2501
     19 C           9.2290  -21.0860  -22.1650 C.ar    1  UNL1        0.0416
     20 C           9.6700  -20.1840  -21.2120 C.ar    1  UNL1       -0.0399
     21 C           8.7400  -19.6350  -20.3330 C.ar    1  UNL1       -0.0600
     22 C           7.3950  -20.0080  -20.4000 C.ar    1  UNL1       -0.0611
     23 C           6.9710  -20.9700  -21.3130 C.ar    1  UNL1       -0.0521
     24 C           7.8880  -21.5190  -22.2090 C.ar    1  UNL1        0.0095
     25 C           4.8800  -25.5010  -24.0070 C.ar    1  UNL1       -0.0387
     26 C           3.9350  -26.4600  -24.3050 C.ar    1  UNL1       -0.0336
     27 H          10.9490  -21.5930  -23.3380 H       1  UNL1        0.1552
     28 H          -0.2030  -24.4050  -30.3110 H       1  UNL1        0.0391
     29 H           1.1190  -25.5370  -30.4510 H       1  UNL1        0.0391
     30 H           1.3560  -24.0230  -29.6210 H       1  UNL1        0.0391
     31 H          -0.5510  -27.0840  -29.7070 H       1  UNL1        0.0391
     32 H          -0.7530  -27.3450  -28.0070 H       1  UNL1        0.0391
     33 H          -1.7800  -26.2040  -28.8260 H       1  UNL1        0.0391
     34 H           2.1830  -25.1990  -27.7330 H       1  UNL1        0.0439
     35 H           1.8110  -26.8040  -28.2320 H       1  UNL1        0.0439
     36 H           0.0110  -26.0650  -26.0660 H       1  UNL1        0.0454
     37 H           1.5800  -25.6110  -25.5740 H       1  UNL1        0.0454
     38 H           0.4890  -28.1680  -25.5720 H       1  UNL1        0.1480
     39 H           4.9350  -27.2060  -27.4680 H       1  UNL1        0.0638
     40 H           6.6450  -25.5640  -26.9060 H       1  UNL1        0.0637
     41 H           7.6220  -24.1700  -25.2540 H       1  UNL1        0.1516
     42 H           5.8440  -23.1930  -23.0570 H       1  UNL1        0.0789
     43 H          10.7300  -19.9640  -21.1030 H       1  UNL1        0.0636
     44 H           9.1030  -18.9420  -19.5780 H       1  UNL1        0.0618
     45 H           6.6660  -19.5270  -19.7500 H       1  UNL1        0.0618
     46 N           0.2200  -25.4740  -28.4990 N.3     1  UNL1       -0.3071
     47 H           5.9390  -21.3150  -21.3280 H       1  UNL1        0.0624
     48 H           4.8320  -25.0530  -23.0170 H       1  UNL1        0.0637
     49 H           3.1710  -26.7150  -23.5730 H       1  UNL1        0.0638
@<TRIPOS>BOND
     1     3     1    2
     2     1     5    1
     3     6     1    2
     4    10     5    1
     5    10     7    1
     6    12     1    1
     7    13    12   ar
     8    14    13   ar
     9    15    14   ar
    10    15     8    1
    11    16     8    1
    12    17    16    2
    13    18    17    1
    14    18     9    2
    15    18    11   am
    16    19    11    1
    17    20    19   ar
    18    21    20   ar
    19    22    21   ar
    20    23    22   ar
    21    24    17    1
    22    24    19   ar
    23    24    23   ar
    24    25    15   ar
    25    26    25   ar
    26    26    12   ar
    27    27    11    1
    28     2    28    1
    29    29     2    1
    30    30     2    1
    31     4    31    1
    32    32     4    1
    33    33     4    1
    34     7    34    1
    35    35     7    1
    36    10    36    1
    37    37    10    1
    38    38     5    1
    39    39    13    1
    40    40    14    1
    41    41     8    1
    42    42    16    1
    43    43    20    1
    44    44    21    1
    45    45    22    1
    46    46     7    1
    47    46     4    1
    48    46     2    1
    49    47    23    1
    50    48    25    1
    51    49    26    1
