@<TRIPOS>MOLECULE
2R3N_SCZ_A501
 26 30 0 0 0
SMALL
GASTEIGER

@<TRIPOS>ATOM
      1 C           8.6360  -21.6860  -22.8850 C.ar    1  UNL1        0.0342
      2 C           7.4380  -22.3870  -22.9540 C.ar    1  UNL1        0.1626
      3 N           7.6780  -23.4390  -23.8450 N.ar    1  UNL1       -0.1975
      4 N           8.9660  -23.4050  -24.3510 N.ar    1  UNL1       -0.1613
      5 C           9.5260  -22.3600  -23.7400 C.ar    1  UNL1        0.1193
      6 N           6.2070  -22.2240  -22.3810 N.ar    1  UNL1       -0.2267
      7 C           5.2700  -23.1220  -22.7030 C.ar    1  UNL1        0.0858
      8 C           5.4430  -24.2380  -23.6320 C.ar    1  UNL1        0.0550
      9 C           6.6730  -24.3800  -24.1720 C.ar    1  UNL1        0.1524
     10 N           7.0270  -25.3630  -25.0360 N.pl3   1  UNL1       -0.2153
     11 C           3.9130  -22.9930  -22.1120 C.ar    1  UNL1        0.0178
     12 C           6.3360  -26.5980  -25.3540 C.3     1  UNL1        0.1417
     13 C           5.3410  -26.4410  -26.4710 C.ar    1  UNL1        0.0186
     14 C           5.7720  -26.1980  -27.7610 C.ar    1  UNL1        0.0963
     15 N           4.9380  -26.0850  -28.8340 N.ar    1  UNL1       -0.2426
     16 C           3.6180  -26.2080  -28.5890 C.ar    1  UNL1        0.0989
     17 C           3.0840  -26.4240  -27.3300 C.ar    1  UNL1        0.0204
     18 C           3.9610  -26.5390  -26.2530 C.ar    1  UNL1        0.0006
     19 C           3.5560  -21.7860  -21.5240 C.ar    1  UNL1        0.0015
     20 C           2.2900  -21.6130  -20.9560 C.ar    1  UNL1        0.0000
     21 C           1.3870  -22.6720  -20.9380 C.ar    1  UNL1        0.0000
     22 C           1.7390  -23.8970  -21.5240 C.ar    1  UNL1        0.0000
     23 C           3.0040  -24.0590  -22.1150 C.ar    1  UNL1        0.0015
     24 C           8.9940  -20.4390  -22.1130 C.3     1  UNL1        0.0270
     25 C           7.9200  -19.5190  -21.6210 C.3     1  UNL1        0.0048
     26 C           8.7310  -20.3350  -20.6350 C.3     1  UNL1        0.0048
@<TRIPOS>BOND
     1     2     1   ar
     2     3     2   ar
     3     4     3   ar
     4     5     4   ar
     5     5     1   ar
     6     6     2   ar
     7     7     6   ar
     8     8     7   ar
     9     9     8   ar
    10     9     3   ar
    11    10     9    1
    12    11     7    1
    13    12    10    1
    14    13    12    1
    15    14    13   ar
    16    15    14   ar
    17    16    15   ar
    18    17    16   ar
    19    18    17   ar
    20    18    13   ar
    21    19    11   ar
    22    20    19   ar
    23    21    20   ar
    24    22    21   ar
    25    23    11   ar
    26    23    22   ar
    27    24     1    1
    28    25    24    1
    29    26    24    1
    30    26    25    1
