@<TRIPOS>MOLECULE
6Q4G_HJK_A301
 20 22 0 0 0
SMALL
GASTEIGER

@<TRIPOS>ATOM
      1 C           4.1840  -21.8520  -23.0190 C.ar    1  UNL1        0.0015
      2 C           2.9860  -21.5210  -22.3960 C.ar    1  UNL1       -0.0003
      3 C           2.9290  -21.4870  -21.0120 C.ar    1  UNL1       -0.0037
      4 C           7.9230  -22.0850  -22.4990 C.ar    1  UNL1        0.1364
      5 C           4.0690  -21.6350  -20.2320 C.ar    1  UNL1       -0.0109
      6 C           4.0450  -21.6110  -18.7090 C.3     1  UNL1        0.1404
      7 C           3.0600  -20.6950  -17.9710 C.2     1  UNL1        0.3692
      8 C           5.2310  -21.9980  -20.8700 C.ar    1  UNL1       -0.0022
      9 C           9.7360  -21.3180  -21.6660 C.ar    1  UNL1        0.2004
     10 C           8.9840  -22.5580  -23.2810 C.ar    1  UNL1        0.1860
     11 N           7.3180  -24.3330  -25.7720 N.pl3   1  UNL1       -0.0860
     12 N           6.4780  -23.1880  -23.9960 N.ar    1  UNL1       -0.2095
     13 C           5.3250  -22.0930  -22.2560 C.ar    1  UNL1        0.0190
     14 N           8.4370  -21.3160  -21.4630 N.ar    1  UNL1       -0.2193
     15 C           7.5700  -23.6060  -24.6740 C.ar    1  UNL1        0.2580
     16 C           6.6160  -22.4500  -22.8830 C.ar    1  UNL1        0.1049
     17 O           2.7670  -20.9820  -16.8350 O.co2   1  UNL1       -0.2453
     18 O           2.8010  -19.5740  -18.4890 O.co2   1  UNL1       -0.2453
     19 N          10.1280  -22.0680  -22.7340 N.ar    1  UNL1       -0.2032
     20 N           8.8590  -23.3230  -24.3660 N.ar    1  UNL1       -0.1904
@<TRIPOS>BOND
     1     2     1   ar
     2     3     2   ar
     3     5     3   ar
     4     6     5    1
     5     7     6    1
     6     8     5   ar
     7    10     4   ar
     8    13     1   ar
     9    13     8   ar
    10    14     4   ar
    11    14     9   ar
    12    15    12   ar
    13    15    11    1
    14    16    13    1
    15    16    12   ar
    16    16     4   ar
    17    17     7   ar
    18    18     7   ar
    19    19    10   ar
    20    19     9   ar
    21    20    15   ar
    22    20    10   ar
