@<TRIPOS>MOLECULE
3QRT_X14_A535
 28 30 0 0 0
SMALL
GASTEIGER

@<TRIPOS>ATOM
      1 N           9.3030  -23.0290  -24.5300 N.ar    1  UNL1       -0.1439
      2 N          10.0710  -22.4650  -23.5690 N.ar    1  UNL1       -0.1525
      3 N           7.1630  -24.0030  -25.9610 N.am    1  UNL1       -0.1955
      4 N           1.1290  -27.8320  -23.7480 N.3     1  UNL1        0.0392
      5 C           9.3470  -21.8000  -22.6380 C.ar    1  UNL1        0.0782
      6 C           8.0090  -21.9290  -22.9880 C.ar    1  UNL1        0.0170
      7 C           8.0320  -22.7010  -24.1900 C.ar    1  UNL1        0.1548
      8 C           9.9070  -21.0670  -21.4600 C.3     1  UNL1        0.0474
      9 C           8.8130  -20.1870  -20.7840 C.3     1  UNL1        0.0067
     10 C           7.4100  -20.8970  -20.7490 C.3     1  UNL1        0.0048
     11 C           6.8940  -21.3130  -22.1790 C.3     1  UNL1        0.0294
     12 C           6.3470  -19.9850  -20.0410 C.3     1  UNL1        0.0003
     13 C           6.9530  -23.0740  -24.9460 C.2     1  UNL1        0.2843
     14 C           6.1160  -24.4700  -26.8860 C.3     1  UNL1        0.1418
     15 C           5.1860  -25.5060  -26.3130 C.ar    1  UNL1       -0.0005
     16 C           4.1760  -26.0100  -27.1570 C.ar    1  UNL1       -0.0012
     17 C           3.2680  -26.9680  -26.6750 C.ar    1  UNL1        0.0197
     18 C           3.3810  -27.4160  -25.3460 C.ar    1  UNL1        0.1250
     19 C           4.3870  -26.9230  -24.4850 C.ar    1  UNL1        0.0197
     20 C           5.2940  -25.9650  -24.9680 C.ar    1  UNL1       -0.0012
     21 C           6.0400  -18.7170  -20.8480 C.3     1  UNL1        0.0000
     22 C           6.8730  -19.5570  -18.6790 C.3     1  UNL1        0.0000
     23 C           5.0430  -20.7640  -19.8630 C.3     1  UNL1        0.0000
     24 C           5.2470  -22.0660  -19.0750 C.3     1  UNL1        0.0000
     25 O           5.8380  -22.5970  -24.7680 O.2     1  UNL1       -0.2666
     26 O           1.5610  -29.2160  -25.8780 O.2     1  UNL1       -0.1503
     27 O           2.9920  -29.5830  -24.0040 O.2     1  UNL1       -0.1503
     28 S           2.2550  -28.6040  -24.7410 S.O2    1  UNL1        0.0935
@<TRIPOS>BOND
     1     2     1   ar
     2     5     2   ar
     3     6     5   ar
     4     7     6   ar
     5     7     1   ar
     6     8     5    1
     7     9     8    1
     8    10     9    1
     9    11     6    1
    10    11    10    1
    11    12    10    1
    12    13     7    1
    13    13     3   am
    14    14     3    1
    15    15    14    1
    16    16    15   ar
    17    17    16   ar
    18    18    17   ar
    19    19    18   ar
    20    20    19   ar
    21    20    15   ar
    22    12    21    1
    23    22    12    1
    24    23    12    1
    25    24    23    1
    26    25    13    2
    27    28    27    2
    28    28    26    2
    29    28    18    1
    30    28     4    1
