@<TRIPOS>MOLECULE
4EOJ_ATP_A301
 31 33 0 0 0
SMALL
GASTEIGER

@<TRIPOS>ATOM
      1 P          -0.9430  -19.8060  -17.0500 P.3     1  UNL1        0.5373
      2 O          -1.9180  -19.7950  -18.2030 O.2     1  UNL1       -0.2221
      3 O          -1.2610  -18.8160  -15.9550 O.3     1  UNL1       -0.1143
      4 O          -0.5810  -21.1850  -16.5530 O.3     1  UNL1       -0.1143
      5 P           1.5740  -18.6980  -16.7060 P.3     1  UNL1        0.2277
      6 O           1.8700  -19.8040  -15.7250 O.2     1  UNL1       -0.5168
      7 O           1.1150  -17.3600  -16.1760 O.3     1  UNL1       -0.4368
      8 O           0.4280  -19.2500  -17.6850 O.3     1  UNL1       -0.2258
      9 P           3.8040  -19.5320  -18.3550 P.3     1  UNL1        0.2189
     10 O           3.7240  -20.8130  -17.5690 O.2     1  UNL1       -0.5170
     11 O           5.1550  -18.8890  -18.5640 O.3     1  UNL1       -0.4371
     12 O           2.8450  -18.4240  -17.6710 O.3     1  UNL1       -0.2700
     13 O           3.1660  -19.7860  -19.8170 O.3     1  UNL1       -0.3112
     14 C           2.2440  -20.8530  -20.0460 C.3     1  UNL1        0.1813
     15 C           2.6510  -21.7660  -21.2070 C.3     1  UNL1        0.1801
     16 O           3.5380  -21.1260  -22.1380 O.3     1  UNL1       -0.3306
     17 C           3.3650  -23.0300  -20.7330 C.3     1  UNL1        0.2161
     18 O           2.4670  -24.1180  -20.4570 O.3     1  UNL1       -0.2175
     19 C           4.3030  -23.3660  -21.8760 C.3     1  UNL1        0.2337
     20 O           3.7790  -24.4530  -22.6510 O.3     1  UNL1       -0.2155
     21 C           4.4340  -22.0920  -22.7140 C.3     1  UNL1        0.2409
     22 N           5.8620  -21.6720  -22.6320 N.ar    1  UNL1       -0.2693
     23 C           6.3880  -20.7770  -21.7730 C.ar    1  UNL1        0.1816
     24 N           7.7320  -20.6470  -21.9500 N.ar    1  UNL1       -0.2193
     25 C           8.0900  -21.4790  -22.9420 C.ar    1  UNL1        0.1518
     26 C           9.3550  -21.8490  -23.6300 C.ar    1  UNL1        0.1919
     27 N          10.5250  -21.2740  -23.2720 N.pl3   1  UNL1       -0.1054
     28 N           9.2960  -22.7760  -24.6200 N.ar    1  UNL1       -0.2040
     29 C           8.1330  -23.3450  -24.9730 C.ar    1  UNL1        0.2016
     30 N           6.9520  -23.0620  -24.3870 N.ar    1  UNL1       -0.2048
     31 C           6.8620  -22.1580  -23.3830 C.ar    1  UNL1        0.1692
@<TRIPOS>BOND
     1     2     1    2
     2     3     1    1
     3     4     1    1
     4     6     5    2
     5     7     5    1
     6     8     5    1
     7     8     1    1
     8    10     9    2
     9    11     9    1
    10    12     9    1
    11    12     5    1
    12    13     9    1
    13    14    13    1
    14    15    14    1
    15    16    15    1
    16    17    15    1
    17    17    18    1
    18    19    17    1
    19    19    20    1
    20    21    19    1
    21    21    16    1
    22    21    22    1
    23    23    22   ar
    24    24    23   ar
    25    25    24   ar
    26    26    25   ar
    27    27    26    1
    28    28    26   ar
    29    29    28   ar
    30    30    29   ar
    31    31    30   ar
    32    31    25   ar
    33    31    22   ar
