@<TRIPOS>MOLECULE
5OO3_9ZB_A301
 16 17 0 0 0
SMALL
GASTEIGER

@<TRIPOS>ATOM
      1 C           9.0800  -18.2790  -22.5590 C.3     1  UNL1        0.0856
      2 C          10.1300  -17.2170  -22.1850 C.3     1  UNL1        0.0101
      3 C           7.3760  -20.7370  -20.1280 C.3     1  UNL1        0.1196
      4 C           5.9840  -20.7520  -20.7380 C.3     1  UNL1        0.1127
      5 O           8.2570  -18.2110  -20.3810 O.2     1  UNL1       -0.2745
      6 C           8.4860  -18.9400  -21.3360 C.2     1  UNL1        0.2294
      7 N           8.2050  -20.2500  -21.2360 N.am    1  UNL1       -0.2557
      8 C           8.4540  -21.1620  -22.2700 C.ar    1  UNL1        0.0672
      9 C           9.6640  -21.4820  -22.8890 C.ar    1  UNL1        0.0162
     10 C           9.6440  -22.4590  -23.9050 C.ar    1  UNL1        0.0014
     11 C           8.4810  -23.1450  -24.3610 C.ar    1  UNL1        0.0014
     12 C           7.2770  -22.8470  -23.7050 C.ar    1  UNL1        0.0158
     13 C           7.2430  -21.9070  -22.6720 C.ar    1  UNL1        0.0618
     14 N           6.0380  -21.5830  -21.9950 N.pl3   1  UNL1       -0.3048
     15 C           4.8010  -22.0190  -22.6250 C.3     1  UNL1        0.0909
     16 C           4.4540  -23.3960  -22.1010 C.3     1  UNL1        0.0232
@<TRIPOS>BOND
     1     2     1    1
     2     4     3    1
     3     6     1    1
     4     6     5    2
     5     7     6   am
     6     7     3    1
     7     8     7    1
     8     9     8   ar
     9    10     9   ar
    10    11    10   ar
    11    12    11   ar
    12    13    12   ar
    13    13     8   ar
    14    14    13    1
    15    14     4    1
    16    15    14    1
    17    16    15    1
