@<TRIPOS>MOLECULE
6Q4E_HH5_A303
 11 12 0 0 0
SMALL
GASTEIGER

@<TRIPOS>ATOM
      1 C          10.0770  -21.2270  -21.7910 C.ar    1  UNL1        0.2004
      2 C           9.2040  -22.5060  -23.3210 C.ar    1  UNL1        0.1864
      3 N           7.3700  -24.3830  -25.5730 N.pl3   1  UNL1       -0.0860
      4 N           6.6370  -23.2030  -23.7060 N.ar    1  UNL1       -0.2036
      5 C           8.2150  -22.0420  -22.4380 C.ar    1  UNL1        0.1419
      6 N           8.7920  -21.2220  -21.4750 N.ar    1  UNL1       -0.2188
      7 C           7.6700  -23.6280  -24.5000 C.ar    1  UNL1        0.2584
      8 C           6.9220  -22.4230  -22.6670 C.ar    1  UNL1        0.1341
      9 I           5.3970  -21.9040  -21.3390 I       1  UNL1       -0.0194
     10 N          10.3910  -22.0090  -22.8740 N.ar    1  UNL1       -0.2032
     11 N           8.9870  -23.3470  -24.3570 N.ar    1  UNL1       -0.1903
@<TRIPOS>BOND
     1     5     2   ar
     2     6     5   ar
     3     6     1   ar
     4     7     4   ar
     5     7     3    1
     6     8     5   ar
     7     8     4   ar
     8     9     8    1
     9    10     2   ar
    10    10     1   ar
    11    11     7   ar
    12    11     2   ar
