@<TRIPOS>MOLECULE
8ERN_WQK_A402
 31 34 0 0 0
SMALL
GASTEIGER

@<TRIPOS>ATOM
      1 N           9.1360  -23.2200  -24.8140 N.ar    1  UNL1       -0.2106
      2 C           7.8160  -23.4590  -24.7040 C.ar    1  UNL1        0.2408
      3 C           9.6200  -22.3140  -23.9940 C.ar    1  UNL1        0.1033
      4 N           6.9390  -22.7970  -23.9230 N.ar    1  UNL1       -0.2121
      5 C           8.8470  -21.5630  -23.0800 C.ar    1  UNL1        0.0370
      6 O           2.5620  -28.6850  -24.0860 O.2     1  UNL1       -0.1516
      7 C           5.4970  -25.7220  -26.4630 C.ar    1  UNL1       -0.0052
      8 C           5.5230  -25.2790  -24.0760 C.ar    1  UNL1        0.0177
      9 C           6.1010  -25.1330  -25.3390 C.ar    1  UNL1        0.0697
     10 N           5.2570  -19.9330  -19.7380 N.am    1  UNL1       -0.2777
     11 C           4.3600  -26.0030  -23.9080 C.ar    1  UNL1        0.0213
     12 C           3.7710  -26.5950  -25.0070 C.ar    1  UNL1        0.1233
     13 C           4.3350  -26.4660  -26.2710 C.ar    1  UNL1        0.0170
     14 N           1.2920  -26.6180  -23.8570 N.3     1  UNL1       -0.0762
     15 N           7.3640  -24.5370  -25.4130 N.pl3   1  UNL1       -0.1780
     16 C           6.0410  -25.5190  -27.8560 C.3     1  UNL1        0.0324
     17 O           6.3290  -18.1240  -20.4870 O.2     1  UNL1       -0.2699
     18 C           9.3350  -20.5980  -22.1720 C.ar    1  UNL1        0.0032
     19 C           8.4850  -19.9300  -21.3380 C.ar    1  UNL1        0.0047
     20 C           7.1020  -20.1710  -21.3760 C.ar    1  UNL1        0.0551
     21 C           6.6040  -21.1120  -22.2480 C.ar    1  UNL1        0.0238
     22 C           7.4650  -21.8360  -23.1050 C.ar    1  UNL1        0.0859
     23 C           6.1870  -19.3370  -20.5220 C.2     1  UNL1        0.2490
     24 C           4.2930  -19.1000  -19.0010 C.3     1  UNL1        0.0937
     25 C           3.1250  -20.0310  -18.7640 C.3     1  UNL1        0.0232
     26 C           3.7710  -21.3930  -18.6540 C.3     1  UNL1        0.0216
     27 C           5.0500  -21.3840  -19.4890 C.3     1  UNL1        0.0757
     28 C           6.2430  -21.9180  -18.7200 C.3     1  UNL1        0.0215
     29 C           0.5900  -25.4710  -24.4160 C.3     1  UNL1        0.1362
     30 O           1.6280  -27.5770  -26.0880 O.2     1  UNL1       -0.1516
     31 S           2.2650  -27.4860  -24.8100 S.O2    1  UNL1        0.0769
@<TRIPOS>BOND
     1     2     1   ar
     2     3     1   ar
     3     4     2   ar
     4     5     3   ar
     5     9     8   ar
     6     9     7   ar
     7    11     8   ar
     8    12    11   ar
     9    13    12   ar
    10    13     7   ar
    11    15     9    1
    12    15     2    1
    13    16     7    1
    14    18     5   ar
    15    19    18   ar
    16    20    19   ar
    17    21    20   ar
    18    22     4   ar
    19    22    21   ar
    20    22     5   ar
    21    23    10   am
    22    23    20    1
    23    23    17    2
    24    24    10    1
    25    25    24    1
    26    26    25    1
    27    27    26    1
    28    27    10    1
    29    27    28    1
    30    29    14    1
    31    31    30    2
    32    31     6    2
    33    31    14    1
    34    31    12    1
