@<TRIPOS>MOLECULE
7CKY_G3U_R502
 28 30 0 0 0
SMALL
GASTEIGER

@<TRIPOS>ATOM
      1 C         124.7020  120.8070  143.3900 C.ar    1  UNL1        0.2648
      2 C         125.5860  123.2300  145.1430 C.ar    1  UNL1        0.0376
      3 C         127.6740  123.3470  146.3210 C.ar    1  UNL1        0.0120
      4 C         126.6280  121.2190  145.9410 C.ar    1  UNL1        0.0334
      5 C         129.6300  125.3410  148.5750 C.ar    1  UNL1        0.3528
      6 C         130.8720  125.0520  146.6550 C.ar    1  UNL1        0.2804
      7 C         129.8620  124.3060  146.1010 C.ar    1  UNL1        0.0519
      8 C         127.4280  124.3990  148.8460 C.3     1  UNL1        0.1351
      9 C         122.3330  118.4280  143.5300 C.3     1  UNL1        0.5088
     10 C         123.6790  120.1630  142.7080 C.ar    1  UNL1        0.1975
     11 C         123.8340  119.8740  141.3610 C.ar    1  UNL1        0.0435
     12 C         125.0150  120.2420  140.7370 C.ar    1  UNL1        0.0240
     13 C         126.0000  120.8810  141.4720 C.ar    1  UNL1        0.1023
     14 C         125.5850  121.8500  145.2820 C.ar    1  UNL1        0.1470
     15 C         126.6330  123.9780  145.6620 C.ar    1  UNL1        0.0042
     16 C         127.6730  121.9660  146.4610 C.ar    1  UNL1       -0.0174
     17 C         128.8230  121.2700  147.1880 C.3     1  UNL1        0.0312
     18 C         128.7190  124.0950  146.8410 C.ar    1  UNL1        0.0643
     19 C         130.0030  123.7210  144.6950 C.3     1  UNL1        0.0376
     20 F         121.1230  118.0350  143.0370 F       1  UNL1       -0.1550
     21 F         122.3900  118.0860  144.8490 F       1  UNL1       -0.1550
     22 N         125.8140  121.1400  142.7550 N.ar    1  UNL1       -0.2072
     23 N         128.6310  124.6170  148.0600 N.ar    1  UNL1       -0.2781
     24 N         130.7380  125.5490  147.8660 N.ar    1  UNL1       -0.1534
     25 O         122.5010  119.8080  143.3750 O.3     1  UNL1       -0.4188
     26 O         124.5270  121.0910  144.7560 O.3     1  UNL1       -0.4338
     27 O         129.5290  125.7980  149.6640 O.2     1  UNL1       -0.2443
     28 O         131.8660  125.2490  146.0410 O.2     1  UNL1       -0.2654
@<TRIPOS>BOND
     1     7     6   ar
     2    10     1   ar
     3    11    10   ar
     4    12    11   ar
     5    13    12   ar
     6    14     4   ar
     7    14     2   ar
     8    15     3   ar
     9    15     2   ar
    10    16     4   ar
    11    16     3   ar
    12    17    16    1
    13    18     7   ar
    14    18     3    1
    15    19     7    1
    16     9    20    1
    17    21     9    1
    18    22     1   ar
    19    22    13   ar
    20    23    18   ar
    21    23     8    1
    22    23     5   ar
    23    24     5   ar
    24    24     6   ar
    25    25     9    1
    26    25    10    1
    27    26     1    1
    28    26    14    1
    29    27     5    2
    30    28     6    2
