@<TRIPOS>MOLECULE
8JXS_V6X_A401
 27 31 0 0 0
SMALL
GASTEIGER

@<TRIPOS>ATOM
      1 C         125.8900  123.1650  145.6580 C.ar    1  UNL1        0.0376
      2 C         126.1770  121.1460  141.9790 C.ar    1  UNL1        0.1052
      3 C         125.2390  120.4850  141.1940 C.ar    1  UNL1        0.0584
      4 C         124.0430  119.9950  141.7830 C.ar    1  UNL1        0.1515
      5 C         122.5820  119.6110  143.4770 C.ar    1  UNL1        0.0484
      6 C         128.8610  120.9940  147.8830 C.3     1  UNL1        0.0312
      7 C         127.8050  121.7680  147.0910 C.ar    1  UNL1       -0.0174
      8 C         127.9230  123.1390  146.9320 C.ar    1  UNL1        0.0136
      9 C         129.1170  123.8800  147.5490 C.ar    1  UNL1        0.0786
     10 C         128.9510  124.5840  148.7370 C.ar    1  UNL1        0.0755
     11 C         127.5820  124.6200  149.4200 C.3     1  UNL1        0.0537
     12 C         131.1630  125.1880  148.6740 C.ar    1  UNL1        0.1357
     13 C         131.3270  124.4630  147.4570 C.ar    1  UNL1        0.1672
     14 C         132.1150  123.5440  145.6480 C.ar    1  UNL1        0.1196
     15 C         130.7650  123.2330  145.7770 C.ar    1  UNL1        0.1022
     16 C         126.9680  123.8390  146.2140 C.ar    1  UNL1        0.0043
     17 C         125.7730  121.7920  145.8150 C.ar    1  UNL1        0.1469
     18 C         124.8750  120.8920  143.8810 C.ar    1  UNL1        0.2326
     19 C         123.8810  120.2110  143.1400 C.ar    1  UNL1        0.0912
     20 C         122.1090  119.0970  142.2610 C.ar    1  UNL1        0.1798
     21 C         126.7290  121.0950  146.5340 C.ar    1  UNL1        0.0334
     22 N         129.9820  125.2310  149.2830 N.ar    1  UNL1       -0.2435
     23 N         132.4400  124.2980  146.6890 N.ar    1  UNL1       -0.2232
     24 N         130.3240  123.8300  146.9200 N.ar    1  UNL1       -0.2865
     25 N         125.9780  121.3320  143.2860 N.ar    1  UNL1       -0.2096
     26 O         124.6830  121.0980  145.2560 O.3     1  UNL1       -0.4360
     27 O         122.9760  119.3360  141.3120 O.2     1  UNL1       -0.4502
@<TRIPOS>BOND
     1     3     2   ar
     2     4     3   ar
     3     7     6    1
     4     8     7   ar
     5     9     8    1
     6    10     9   ar
     7    11    10    1
     8    13    12   ar
     9    15    14   ar
    10    16     8   ar
    11    16     1   ar
    12    17     1   ar
    13    19     5   ar
    14    19    18   ar
    15    19     4   ar
    16    20     5   ar
    17    21    17   ar
    18    21     7   ar
    19    22    10   ar
    20    22    12   ar
    21    23    14   ar
    22    23    13   ar
    23    24    15   ar
    24    24     9   ar
    25    24    13   ar
    26    25    18   ar
    27    25     2   ar
    28    26    18    1
    29    26    17    1
    30    27    20   ar
    31    27     4   ar
