@<TRIPOS>MOLECULE
8VYX_A1AHU_C600
 59 64 0 0 0
SMALL
GASTEIGER

@<TRIPOS>ATOM
      1  N1        24.2220  -14.6320   10.8080 N.pl3 600  A1A600     -0.2068
      2  C4        23.5040  -12.5800    6.4640 C.3   600  A1A600      0.0478
      3  C5        22.8970  -12.0920    5.2340 C.ar  600  A1A600     -0.0366
      4  C6        23.6580  -11.6520    4.0950 C.ar  600  A1A600     -0.0545
      5  C7        22.9810  -11.2130    2.9150 C.ar  600  A1A600     -0.0199
      6  C8        21.5980  -11.3030    2.8710 C.ar  600  A1A600      0.1169
      7  C10       21.5220  -12.1300    5.1460 C.ar  600  A1A600     -0.0545
      8  C13       25.1110   -9.8580    6.7990 C.ar  600  A1A600     -0.0544
      9  C15       27.4190   -9.1490    6.6520 C.ar  600  A1A600      0.1169
     10  C17       26.9590  -11.4690    6.9580 C.ar  600  A1A600     -0.0544
     11  C20       22.7860  -16.4330    9.9420 C.3   600  A1A600     -0.0314
     12  C21       23.9730  -17.0330    9.2040 C.3   600  A1A600     -0.0244
     13  C22       25.4330  -15.2590   10.3680 C.ar  600  A1A600      0.0540
     14  C24       26.5310  -17.0240    9.1440 C.ar  600  A1A600     -0.0568
     15  C26       27.8450  -15.3230   10.2430 C.ar  600  A1A600     -0.0599
     16  C1        23.6970  -12.3090    9.2740 C.3   600  A1A600      0.1252
     17  C11       24.6660  -12.2930    7.0790 C.3   600  A1A600      0.0496
     18  C12       25.5750  -11.1770    6.9500 C.ar  600  A1A600     -0.0365
     19  C14       26.0600   -8.8250    6.6350 C.ar  600  A1A600     -0.0199
     20  C16       27.8690  -10.4560    6.7980 C.ar  600  A1A600     -0.0199
     21  C18       24.6550  -13.1130    8.3730 C.3   600  A1A600      0.0944
     22  C19       23.2540  -15.6260   11.1670 C.3   600  A1A600      0.0349
     23  C2        22.3450  -12.6860    8.6510 C.3   600  A1A600      0.0008
     24  C23       25.3400  -16.4300    9.5770 C.ar  600  A1A600     -0.0247
     25  C25       27.7510  -16.4710    9.4640 C.ar  600  A1A600     -0.0614
     26  C27       26.6840  -14.7020   10.6940 C.ar  600  A1A600     -0.0388
     27  C3        22.7970  -13.5400    7.4310 C.3   600  A1A600      0.0725
     28  C9        20.8810  -11.6890    3.9760 C.ar  600  A1A600     -0.0199
     29  O1        25.1620  -12.2910   11.5890 O.2   600  A1A600     -0.1546
     30  O2        20.8690  -10.8940    1.7930 O.3   600  A1A600     -0.5068
     31  O3        28.3380   -8.1420    6.4880 O.3   600  A1A600     -0.5068
     32  O4        23.8770  -14.2270    8.0160 O.3   600  A1A600     -0.3695
     33  O5        22.6220  -12.6540   11.6980 O.2   600  A1A600     -0.1546
     34  S1        23.9190  -12.9180   11.0390 S.O2  600  A1A600      0.0509
     35  H6        24.7390  -11.6470    4.1190 H     600  A1A600      0.0622
     36  H7        23.5410  -10.8200    2.0770 H     600  A1A600      0.0654
     37  H10       20.9250  -12.4950    5.9700 H     600  A1A600      0.0622
     38  H11       24.0550   -9.6270    6.8050 H     600  A1A600      0.0622
     39  H15       27.3100  -12.4820    7.0910 H     600  A1A600      0.0622
     40  H19       22.1010  -17.2220   10.2600 H     600  A1A600      0.0284
     41  H18       22.2120  -15.7880    9.2720 H     600  A1A600      0.0284
     42  H20       23.9930  -18.1070    9.3930 H     600  A1A600      0.0314
     43  H21       23.8110  -16.9140    8.1320 H     600  A1A600      0.0314
     44  H22       26.4980  -17.9260    8.5520 H     600  A1A600      0.0621
     45  H24       28.8130  -14.9160   10.4970 H     600  A1A600      0.0618
     46  H1        23.8310  -11.2300    9.2890 H     600  A1A600      0.0582
     47  H12       25.7350   -7.8030    6.5000 H     600  A1A600      0.0654
     48  H14       28.9260  -10.6790    6.7850 H     600  A1A600      0.0654
     49  H3        25.5870  -13.4940    8.7920 H     600  A1A600      0.0625
     50  H17       22.3920  -15.1460   11.6330 H     600  A1A600      0.0482
     51  H16       23.6850  -16.3070   11.9030 H     600  A1A600      0.0482
     52  H4        21.7190  -13.2660    9.3300 H     600  A1A600      0.0310
     53  H5        21.7750  -11.8130    8.3340 H     600  A1A600      0.0310
     54  H23       28.6550  -16.9380    9.1020 H     600  A1A600      0.0618
     55  H25       26.7620  -13.8050   11.2860 H     600  A1A600      0.0637
     56  H2        22.0810  -14.2520    7.0170 H     600  A1A600      0.0606
     57  H9        19.8020  -11.6580    3.9520 H     600  A1A600      0.0654
     58  H8        21.2840  -11.1990    0.9630 H     600  A1A600      0.2921
     59  H13       28.1400   -7.5750    5.7400 H     600  A1A600      0.2921
@<TRIPOS>BOND
     1    58    30    1
     2    30     6    1
     3    36     5    1
     4     6     5   ar
     5     6    28   ar
     6     5     4   ar
     7    57    28    1
     8    28     7   ar
     9     4    35    1
    10     4     3   ar
    11     7     3   ar
    12     7    37    1
    13     3     2    1
    14    59    31    1
    15     2    17    1
    16     2    27    1
    17    31     9    1
    18    47    19    1
    19    19     9   ar
    20    19     8   ar
    21     9    20   ar
    22    48    20    1
    23    20    10   ar
    24     8    38    1
    25     8    18   ar
    26    18    10   ar
    27    18    17    1
    28    10    39    1
    29    56    27    1
    30    17    21    1
    31    27    32    1
    32    27    23    1
    33    32    21    1
    34    43    12    1
    35    53    23    1
    36    21    49    1
    37    21    16    1
    38    44    14    1
    39    23    16    1
    40    23    52    1
    41    54    25    1
    42    14    25   ar
    43    14    24   ar
    44    12    42    1
    45    12    24    1
    46    12    11    1
    47    41    11    1
    48    16    46    1
    49    16    34    1
    50    25    15   ar
    51    24    13   ar
    52    11    40    1
    53    11    22    1
    54    15    45    1
    55    15    26   ar
    56    13    26   ar
    57    13     1    1
    58    26    55    1
    59     1    34    1
    60     1    22    1
    61    34    29    2
    62    34    33    2
    63    22    50    1
    64    22    51    1
