@<TRIPOS>MOLECULE
8VZ0_A1AHO_D600
 58 62 0 0 0
SMALL
GASTEIGER

@<TRIPOS>ATOM
      1  N1        25.6690  -12.5530   11.4940 N.pl3 600  A1A600     -0.2055
      2  C4        23.7080  -12.4810    6.4760 C.3   600  A1A600      0.0478
      3  C5        23.0260  -12.0080    5.2550 C.ar  600  A1A600     -0.0366
      4  C6        23.7120  -11.5280    4.1310 C.ar  600  A1A600     -0.0545
      5  C7        22.9990  -11.1140    3.0050 C.ar  600  A1A600     -0.0199
      6  C8        21.6040  -11.1820    3.0040 C.ar  600  A1A600      0.1169
      7  C10       21.6280  -12.0750    5.2340 C.ar  600  A1A600     -0.0545
      8  C13       25.2830   -9.7700    6.6890 C.ar  600  A1A600     -0.0544
      9  C15       27.4950   -8.8490    6.4720 C.ar  600  A1A600      0.1169
     10  C17       27.2040  -11.2190    6.7770 C.ar  600  A1A600     -0.0544
     11  C24       25.2380  -10.3040   11.7730 C.ar  600  A1A600     -0.0356
     12  C26       26.5830   -8.6250   10.7150 C.ar  600  A1A600      0.1202
     13  C28       27.4060   -9.6360   10.1750 C.ar  600  A1A600     -0.0182
     14  C1        24.0170  -12.3370    9.3210 C.3   600  A1A600      0.1252
     15  C11       24.9300  -12.2180    7.0030 C.3   600  A1A600      0.0496
     16  C12       25.8170  -11.0510    6.8140 C.ar  600  A1A600     -0.0365
     17  C14       26.1150   -8.6710    6.5140 C.ar  600  A1A600     -0.0199
     18  C16       28.0440  -10.1200    6.6070 C.ar  600  A1A600     -0.0199
     19  C18       24.9530  -13.0080    8.2990 C.3   600  A1A600      0.0944
     20  C19       26.5290  -13.3310   12.1670 C.3   600  A1A600      0.0520
     21  C2        22.6320  -12.5420    8.7020 C.3   600  A1A600      0.0008
     22  C23       26.0580  -11.2800   11.2500 C.ar  600  A1A600      0.0512
     23  C25       25.5030   -8.9750   11.5120 C.ar  600  A1A600     -0.0182
     24  C27       27.6330   -6.8720    9.4990 C.3   600  A1A600      0.0788
     25  C29       27.1440  -10.9750   10.4400 C.ar  600  A1A600     -0.0356
     26  C3        23.0080  -13.3980    7.4780 C.3   600  A1A600      0.0725
     27  C9        20.9150  -11.6640    4.1110 C.ar  600  A1A600     -0.0199
     28  O1        23.1250  -12.6850   11.8790 O.2   600  A1A600     -0.1546
     29  O2        20.9000  -10.7880    1.9010 O.3   600  A1A600     -0.5068
     30  O3        28.3170   -7.7670    6.3030 O.3   600  A1A600     -0.5068
     31  O4        24.1150  -14.1020    7.9960 O.3   600  A1A600     -0.3695
     32  O5        26.7430   -7.2700   10.5250 O.3   600  A1A600     -0.4951
     33  O6        24.2910  -14.6740   10.7510 O.2   600  A1A600     -0.1546
     34  S1        24.1330  -13.2270   10.9770 S.O2  600  A1A600      0.0509
     35  H6        24.7920  -11.4730    4.1220 H     600  A1A600      0.0622
     36  H7        23.5290  -10.7400    2.1400 H     600  A1A600      0.0654
     37  H10       21.0870  -12.4480    6.0910 H     600  A1A600      0.0622
     38  H11       24.2150   -9.6160    6.7250 H     600  A1A600      0.0622
     39  H15       27.6390  -12.2030    6.8800 H     600  A1A600      0.0622
     40  H23       24.3880  -10.5700   12.3860 H     600  A1A600      0.0638
     41  H28       28.2510   -9.3960    9.5490 H     600  A1A600      0.0655
     42  H1        24.2820  -11.2930    9.4780 H     600  A1A600      0.0582
     43  H12       25.6880   -7.6840    6.4120 H     600  A1A600      0.0654
     44  H14       29.1160  -10.2640    6.5810 H     600  A1A600      0.0654
     45  H3        25.9390  -13.3220    8.6430 H     600  A1A600      0.0625
     46  H16       27.4150  -12.7560   12.4350 H     600  A1A600      0.0498
     47  H17       26.1170  -14.3360   12.2690 H     600  A1A600      0.0498
     48  H5        22.1550  -11.6090    8.4010 H     600  A1A600      0.0310
     49  H4        21.9430  -13.0730    9.3590 H     600  A1A600      0.0310
     50  H24       24.8670   -8.2090   11.9310 H     600  A1A600      0.0655
     51  H25       27.8790   -5.8190    9.6260 H     600  A1A600      0.0660
     52  H26       27.1550   -7.0250    8.5320 H     600  A1A600      0.0660
     53  H27       28.5420   -7.4730    9.5600 H     600  A1A600      0.0660
     54  H29       27.7700  -11.7510   10.0250 H     600  A1A600      0.0638
     55  H2        22.2430  -14.0830    7.1130 H     600  A1A600      0.0606
     56  H9        19.8380  -11.7200    4.1070 H     600  A1A600      0.0654
     57  H8        20.1640  -10.2090    2.1150 H     600  A1A600      0.2921
     58  H13       28.1910   -7.3300    5.4580 H     600  A1A600      0.2921
@<TRIPOS>BOND
     1    29    57    1
     2    29     6    1
     3    36     5    1
     4     6     5   ar
     5     6    27   ar
     6     5     4   ar
     7    56    27    1
     8    27     7   ar
     9    35     4    1
    10     4     3   ar
    11     7     3   ar
    12     7    37    1
    13     3     2    1
    14    58    30    1
    15    30     9    1
    16    43    17    1
    17     9    17   ar
    18     9    18   ar
    19     2    15    1
    20     2    26    1
    21    17     8   ar
    22    44    18    1
    23    18    10   ar
    24     8    38    1
    25     8    16   ar
    26    10    16   ar
    27    10    39    1
    28    16    15    1
    29    15    19    1
    30    55    26    1
    31    26    31    1
    32    26    21    1
    33    31    19    1
    34    19    45    1
    35    19    14    1
    36    48    21    1
    37    52    24    1
    38    21    14    1
    39    21    49    1
    40    14    42    1
    41    14    34    1
    42    24    53    1
    43    24    51    1
    44    24    32    1
    45    41    13    1
    46    54    25    1
    47    13    25   ar
    48    13    12   ar
    49    25    22   ar
    50    32    12    1
    51    12    23   ar
    52    33    34    2
    53    34     1    1
    54    34    28    2
    55    22     1    1
    56    22    11   ar
    57     1    20    1
    58    23    11   ar
    59    23    50    1
    60    11    40    1
    61    20    47    1
    62    20    46    1
