@<TRIPOS>MOLECULE
8W07_A1AHY_A601
 72 77 0 0 0
SMALL
GASTEIGER

@<TRIPOS>ATOM
      1  N1        24.2320  -14.6560   10.3960 N.pl3 601  A1A601     -0.2040
      2  C2        24.7950  -11.7890    9.0660 C.3   601  A1A601      0.0008
      3  C4        25.4830  -11.9040    6.8420 C.3   601  A1A601      0.0478
      4  C5        26.1390  -10.5940    6.6950 C.ar  601  A1A601     -0.0366
      5  C6        27.5310  -10.5110    6.7480 C.ar  601  A1A601     -0.0545
      6  C1        23.4490  -12.4260    8.7170 C.3   601  A1A601      0.1252
      7  O1        21.7560  -14.1170    9.9500 O.2   601  A1A601     -0.1546
      8  S1        22.9940  -13.4050   10.2380 S.O2  601  A1A601      0.0511
      9  O2        27.9390   -6.9220    6.2980 O.3   601  A1A601     -0.5068
     10  C3        25.6790  -12.6520    8.1480 C.3   601  A1A601      0.0725
     11  O3        20.9850  -11.0730    2.0060 O.3   601  A1A601     -0.5068
     12  O4        24.9120  -13.7960    7.9330 O.3   601  A1A601     -0.3695
     13  O5        23.4260  -19.4920    7.6350 O.3   601  A1A601     -0.4951
     14  O6        23.0590  -12.4210   11.3460 O.2   601  A1A601     -0.1546
     15  C7        28.1550   -9.2770    6.6190 C.ar  601  A1A601     -0.0199
     16  C8        27.3640   -8.1480    6.4410 C.ar  601  A1A601      0.1169
     17  C9        25.9740   -8.2150    6.3880 C.ar  601  A1A601     -0.0199
     18  C10       25.3600   -9.4470    6.5250 C.ar  601  A1A601     -0.0545
     19  C11       24.2230  -12.2650    6.4380 C.3   601  A1A601      0.0496
     20  C12       23.3580  -11.9410    5.2800 C.ar  601  A1A601     -0.0365
     21  C13       21.9690  -12.1630    5.3290 C.ar  601  A1A601     -0.0544
     22  C14       21.1590  -11.8720    4.2370 C.ar  601  A1A601     -0.0199
     23  C15       21.7530  -11.3690    3.0840 C.ar  601  A1A601      0.1169
     24  C16       23.1250  -11.1530    3.0130 C.ar  601  A1A601     -0.0199
     25  C17       23.9300  -11.4420    4.1100 C.ar  601  A1A601     -0.0544
     26  C18       23.7310  -13.2470    7.4630 C.3   601  A1A601      0.0944
     27  C19       25.2260  -14.2470   11.4420 C.3   601  A1A601      0.0459
     28  C20       26.5760  -13.5200   11.1110 C.3   601  A1A601     -0.0326
     29  C21       27.7450  -13.6810   12.1350 C.3   601  A1A601     -0.0513
     30  C22       27.3870  -13.8210   13.6290 C.3   601  A1A601     -0.0529
     31  C23       26.1860  -14.7640   13.8010 C.3   601  A1A601     -0.0513
     32  C24       25.6380  -15.3380   12.4640 C.3   601  A1A601     -0.0326
     33  C25       24.0400  -15.8810    9.6940 C.ar  601  A1A601      0.0514
     34  C26       24.7940  -16.2600    8.5940 C.ar  601  A1A601     -0.0356
     35  C27       24.6280  -17.4680    7.9410 C.ar  601  A1A601     -0.0182
     36  C28       23.6000  -18.3190    8.3340 C.ar  601  A1A601      0.1202
     37  C29       24.5010  -20.1320    6.9890 C.3   601  A1A601      0.0788
     38  C30       22.7850  -17.9420    9.4140 C.ar  601  A1A601     -0.0182
     39  C31       23.0000  -16.7350   10.0790 C.ar  601  A1A601     -0.0356
     40  H5        25.0520  -11.8960   10.1200 H     601  A1A601      0.0310
     41  H4        24.8380  -10.7300    8.8160 H     601  A1A601      0.0310
     42  H6        28.1350  -11.3960    6.8910 H     601  A1A601      0.0622
     43  H1        22.6280  -11.7590    8.4540 H     601  A1A601      0.0582
     44  H8        27.4870   -6.3560    5.6750 H     601  A1A601      0.2921
     45  H2        26.6480  -13.0000    8.5060 H     601  A1A601      0.0606
     46  H13       21.3030  -11.4860    1.2000 H     601  A1A601      0.2921
     47  H7        29.2320   -9.2010    6.6550 H     601  A1A601      0.0654
     48  H9        25.3810   -7.3240    6.2440 H     601  A1A601      0.0654
     49  H10       24.2820   -9.5080    6.4980 H     601  A1A601      0.0622
     50  H11       21.5150  -12.5660    6.2220 H     601  A1A601      0.0622
     51  H12       20.0930  -12.0350    4.2870 H     601  A1A601      0.0654
     52  H14       23.5710  -10.7600    2.1100 H     601  A1A601      0.0654
     53  H15       24.9950  -11.2770    4.0440 H     601  A1A601      0.0622
     54  H3        23.0190  -13.9950    7.1150 H     601  A1A601      0.0625
     55  H16       24.5290  -13.5040   11.8310 H     601  A1A601      0.0518
     56  H17       26.3940  -12.4480   11.0050 H     601  A1A601      0.0284
     57  H18       26.9490  -13.8690   10.1470 H     601  A1A601      0.0284
     58  H20       28.4080  -12.8210   12.0270 H     601  A1A601      0.0266
     59  H19       28.3290  -14.5550   11.8450 H     601  A1A601      0.0266
     60  H22       28.2450  -14.2030   14.1860 H     601  A1A601      0.0265
     61  H21       27.1590  -12.8420   14.0550 H     601  A1A601      0.0265
     62  H24       26.4690  -15.5910   14.4540 H     601  A1A601      0.0266
     63  H23       25.3840  -14.2320   14.3150 H     601  A1A601      0.0266
     64  H26       26.3990  -15.9820   12.0220 H     601  A1A601      0.0284
     65  H25       24.7790  -15.9750   12.6820 H     601  A1A601      0.0284
     66  H27       25.5510  -15.5840    8.2220 H     601  A1A601      0.0638
     67  H28       25.2920  -17.7440    7.1360 H     601  A1A601      0.0655
     68  H30       24.2810  -21.1960    6.8920 H     601  A1A601      0.0660
     69  H29       25.4080  -19.9960    7.5810 H     601  A1A601      0.0660
     70  H31       24.6380  -19.6920    6.0000 H     601  A1A601      0.0660
     71  H32       21.9780  -18.5720    9.7520 H     601  A1A601      0.0655
     72  H33       22.3540  -16.4640   10.9020 H     601  A1A601      0.0638
@<TRIPOS>BOND
     1    46    11    1
     2    11    23    1
     3    52    24    1
     4    24    23   ar
     5    24    25   ar
     6    23    22   ar
     7    53    25    1
     8    25    20   ar
     9    22    51    1
    10    22    21   ar
    11    20    21   ar
    12    20    19    1
    13    21    50    1
    14    44     9    1
    15    70    37    1
    16    48    17    1
    17     9    16    1
    18    17    16   ar
    19    17    18   ar
    20    19     3    1
    21    19    26    1
    22    16    15   ar
    23    49    18    1
    24    18     4   ar
    25    15    47    1
    26    15     5   ar
    27     4     5   ar
    28     4     3    1
    29     5    42    1
    30     3    10    1
    31    68    37    1
    32    37    69    1
    33    37    13    1
    34    54    26    1
    35    67    35    1
    36    26    12    1
    37    26     6    1
    38    13    36    1
    39    12    10    1
    40    35    36   ar
    41    35    34   ar
    42    10    45    1
    43    10     2    1
    44    66    34    1
    45    36    38   ar
    46    43     6    1
    47    34    33   ar
    48     6     2    1
    49     6     8    1
    50    41     2    1
    51     2    40    1
    52    38    71    1
    53    38    39   ar
    54    33    39   ar
    55    33     1    1
    56     7     8    2
    57    39    72    1
    58    57    28    1
    59     8     1    1
    60     8    14    2
    61     1    27    1
    62    56    28    1
    63    28    27    1
    64    28    29    1
    65    27    55    1
    66    27    32    1
    67    59    29    1
    68    64    32    1
    69    58    29    1
    70    29    30    1
    71    32    65    1
    72    32    31    1
    73    30    31    1
    74    30    61    1
    75    30    60    1
    76    31    63    1
    77    31    62    1
