@<TRIPOS>MOLECULE
7RS3_7OR_B604
 45 50 0 0 0
SMALL
GASTEIGER

@<TRIPOS>ATOM
      1 C          21.8090  -12.1480    5.1330 C.ar    1  UNL1        0.0030
      2 C          23.1530  -11.0760    2.9480 C.ar    1  UNL1        0.0420
      3 C          27.2510  -10.7390    6.6710 C.ar    1  UNL1        0.0029
      4 C          27.2650   -8.3410    6.1430 C.ar    1  UNL1        0.1391
      5 C          26.1840  -10.2200   10.7820 C.ar    1  UNL1        0.0690
      6 C          25.7760   -7.8150   11.1740 C.ar    1  UNL1        0.0382
      7 C          27.5490   -8.4330    9.7090 C.ar    1  UNL1        0.0382
      8 C          23.9020  -12.5910    6.3400 C.2     1  UNL1        0.0030
      9 C          23.5060  -13.4720    7.3800 C.3     1  UNL1        0.1394
     10 C          22.7500  -13.2460    8.6120 C.3     1  UNL1        0.0625
     11 C          23.7240  -12.0700    9.2290 C.3     1  UNL1        0.1829
     12 C          25.2110  -12.0260    6.9770 C.2     1  UNL1        0.0046
     13 C          24.9270  -12.3000    8.3600 C.3     1  UNL1        0.1612
     14 O          24.7530  -13.6600    8.0230 O.3     1  UNL1       -0.3481
     15 C          25.8410  -10.7740    6.6650 C.ar    1  UNL1       -0.0017
     16 C          23.2180  -12.0640    5.1850 C.ar    1  UNL1       -0.0017
     17 C          21.0760  -11.6990    4.0520 C.ar    1  UNL1        0.0420
     18 C          21.7360  -11.1640    2.9420 C.ar    1  UNL1        0.1957
     19 C          23.8770  -11.5390    4.0570 C.ar    1  UNL1        0.0030
     20 C          27.9410   -9.5550    6.4130 C.ar    1  UNL1        0.0369
     21 C          25.8460   -8.3890    6.1730 C.ar    1  UNL1        0.0369
     22 C          25.1520   -9.5760    6.4370 C.ar    1  UNL1        0.0029
     23 O          20.9720  -10.7560    1.8840 O.3     1  UNL1       -0.2866
     24 O          28.0140   -7.1840    5.8870 O.3     1  UNL1       -0.4706
     25 S          24.2570  -12.2940   10.9190 S.O2    1  UNL1        0.0582
     26 N          25.8860  -11.6350   10.9680 N.pl3   1  UNL1       -0.1856
     27 C          25.4750   -9.1710   11.3890 C.ar    1  UNL1        0.0192
     28 C          26.8170   -7.4000   10.3370 C.ar    1  UNL1        0.1388
     29 C          27.2320   -9.7880    9.9260 C.ar    1  UNL1        0.0192
     30 O          23.4080  -11.4710   11.7080 O.2     1  UNL1       -0.1542
     31 O          24.2770  -13.6690   11.2280 O.2     1  UNL1       -0.1542
     32 C          27.0380  -12.5380   11.1450 C.3     1  UNL1        0.2182
     33 C          27.4160   -5.9150    5.5650 C.3     1  UNL1        0.2320
     34 C          28.4110   -4.7740    5.2330 C.ar    1  UNL1        0.0212
     35 C          29.7100   -4.7240    5.7970 C.ar    1  UNL1       -0.0007
     36 C          30.6230   -3.6930    5.5010 C.ar    1  UNL1       -0.0002
     37 C          30.2750   -2.6600    4.6190 C.ar    1  UNL1       -0.0000
     38 C          29.0010   -2.6840    4.0500 C.ar    1  UNL1       -0.0002
     39 C          28.1010   -3.7220    4.3540 C.ar    1  UNL1       -0.0007
     40 C          27.5580  -12.6860   12.6380 C.3     1  UNL1        0.4174
     41 F          28.3090  -11.6960   13.0380 F       1  UNL1       -0.1681
     42 F          28.2560  -13.7900   12.8140 F       1  UNL1       -0.1681
     43 F          26.5200  -12.8180   13.5040 F       1  UNL1       -0.1681
     44 O          27.0720   -6.0320   10.1710 O.3     1  UNL1       -0.4714
     45 C          28.0720   -5.5610    9.2540 C.3     1  UNL1        0.2525
@<TRIPOS>BOND
     1     9     8    1
     2     9    10    1
     3    11    10    1
     4    12     8    2
     5    13    12    1
     6    13    11    1
     7    14    13    1
     8    14     9    1
     9    15    12    1
    10    15     3   ar
    11    16     1   ar
    12    16     8    1
    13    17     1   ar
    14    18    17   ar
    15    18     2   ar
    16    19    16   ar
    17    19     2   ar
    18    20     4   ar
    19    20     3   ar
    20    21     4   ar
    21    22    21   ar
    22    22    15   ar
    23    23    18    1
    24    24     4    1
    25    25    11    1
    26    25    26    1
    27    26     5    1
    28    27     5   ar
    29    27     6   ar
    30    28     6   ar
    31    28     7   ar
    32    29     5   ar
    33    29     7   ar
    34    30    25    2
    35    31    25    2
    36    32    26    1
    37    33    24    1
    38    34    33    1
    39    35    34   ar
    40    36    35   ar
    41    37    36   ar
    42    38    37   ar
    43    39    38   ar
    44    39    34   ar
    45    40    32    1
    46    40    41    1
    47    42    40    1
    48    43    40    1
    49    44    28    1
    50    45    44    1
