@<TRIPOS>MOLECULE
7RRX_7AI_D601
 37 41 0 0 0
SMALL
GASTEIGER

@<TRIPOS>ATOM
      1  C10       21.6040  -11.2330    3.0370 C.ar  601  7AI601      0.1957
      2  C13       21.5710  -11.8570    5.2810 C.ar  601  7AI601      0.0030
      3  C20       23.5130  -17.1540    9.6040 C.3   601  7AI601      0.4174
      4  C21       25.9530  -15.5280   10.4990 C.ar  601  7AI601      0.0690
      5  C22       26.7430  -15.5950   11.5970 C.ar  601  7AI601      0.0194
      6  C24       28.5840  -16.4780   10.4140 C.ar  601  7AI601      0.1958
      7  C26       26.5330  -15.9670    9.3500 C.ar  601  7AI601      0.0194
      8  C28       25.6140  -10.6160    6.9180 C.ar  601  7AI601     -0.0017
      9  C01       22.9190  -11.7300    5.4260 C.ar  601  7AI601     -0.0017
     10  N01       24.7430  -15.1030   10.6650 N.pl3 601  7AI601     -0.1856
     11  C04       23.0890  -13.1590    7.4880 C.3   601  7AI601      0.1394
     12  S01       24.3170  -13.4330   10.8680 S.O2  601  7AI601      0.0582
     13  C06       24.9100  -12.5810    8.3390 C.3   601  7AI601      0.1612
     14  C07       22.6010  -12.5610    8.8190 C.3   601  7AI601      0.0625
     15  C08       23.9570  -12.3370    9.5250 C.3   601  7AI601      0.1829
     16  C09       22.9390  -11.0920    3.1420 C.ar  601  7AI601      0.0420
     17  C11       20.9400  -11.6240    4.1240 C.ar  601  7AI601      0.0420
     18  C12       23.5800  -11.3520    4.3100 C.ar  601  7AI601      0.0030
     19  O01       24.3240  -13.7380    7.8070 O.3   601  7AI601     -0.3481
     20  O02       29.8900  -16.9120   10.4740 O.3   601  7AI601     -0.2866
     21  C16       24.6740  -11.5430    7.2350 C.2   601  7AI601      0.0046
     22  C19       23.6670  -16.1900   10.7400 C.3   601  7AI601      0.2182
     23  O03       20.9610  -11.0150    1.8880 O.3   601  7AI601     -0.2866
     24  O05       23.1750  -13.7060   11.7300 O.2   601  7AI601     -0.1542
     25  C23       28.0100  -16.0400   11.5550 C.ar  601  7AI601      0.0433
     26  C25       27.8020  -16.4210    9.3040 C.ar  601  7AI601      0.0433
     27  C27       23.5430  -11.9880    6.6080 C.2   601  7AI601      0.0030
     28  C29       25.2600   -9.3310    6.7150 C.ar  601  7AI601      0.0030
     29  C30       26.1530   -8.3840    6.3970 C.ar  601  7AI601      0.0420
     30  C31       27.4630   -8.6510    6.2510 C.ar  601  7AI601      0.1957
     31  C32       27.8380   -9.9360    6.4420 C.ar  601  7AI601      0.0420
     32  C33       26.9380  -10.8910    6.7680 C.ar  601  7AI601      0.0030
     33  O06       28.3340   -7.6620    5.9060 O.3   601  7AI601     -0.2866
     34  F01       22.4280  -17.8800    9.6790 F     601  7AI601     -0.1681
     35  F02       24.5080  -18.0110    9.5110 F     601  7AI601     -0.1681
     36  F03       23.4350  -16.4970    8.4860 F     601  7AI601     -0.1681
     37  O04       25.6350  -13.1000   11.4270 O.2   601  7AI601     -0.1542
@<TRIPOS>BOND
     1    23     1    1
     2     1    16   ar
     3     1    17   ar
     4    16    18   ar
     5    17     2   ar
     6    18     9   ar
     7     2     9   ar
     8     9    27    1
     9    33    30    1
    10    30    29   ar
    11    30    31   ar
    12    29    28   ar
    13    31    32   ar
    14    27    21    2
    15    27    11    1
    16    28     8   ar
    17    32     8   ar
    18     8    21    1
    19    21    13    1
    20    11    19    1
    21    11    14    1
    22    19    13    1
    23    13    15    1
    24    36     3    1
    25    14    15    1
    26    26     7   ar
    27    26     6   ar
    28     7     4   ar
    29    35     3    1
    30    15    12    1
    31     3    34    1
    32     3    22    1
    33     6    20    1
    34     6    25   ar
    35     4    10    1
    36     4     5   ar
    37    10    22    1
    38    10    12    1
    39    12    37    2
    40    12    24    2
    41    25     5   ar
