@<TRIPOS>MOLECULE
8DV7_TXK_A601
 37 42 0 0 0
SMALL
GASTEIGER

@<TRIPOS>ATOM
      1 N          24.3050  -12.9770    7.2100 N.am    1  UNL1       -0.2730
      2 C          21.4400  -11.8540    4.2030 C.ar    1  UNL1        0.0376
      3 C          22.4590  -12.1540    5.2320 C.ar    1  UNL1       -0.0195
      4 C          23.8030  -12.0050    5.0920 C.ar    1  UNL1       -0.0038
      5 C          21.8840  -12.7550    6.5910 C.3     1  UNL1        0.0444
      6 C          23.0180  -12.6810    7.6110 C.3     1  UNL1        0.0652
      7 C          25.2240  -13.9550    7.8470 C.2     1  UNL1        0.2494
      8 C          24.5880  -16.1480   10.9300 C.ar    1  UNL1        0.0001
      9 C          23.1160  -16.8080    9.0130 C.ar    1  UNL1        0.0001
     10 C          22.7250  -11.4360    8.5010 C.3     1  UNL1        0.0203
     11 C          26.9020  -10.9420    6.6920 C.ar    1  UNL1       -0.0027
     12 C          27.6430   -9.6550    7.0560 C.ar    1  UNL1       -0.0045
     13 C          26.8960   -8.5520    7.1900 C.ar    1  UNL1       -0.0222
     14 C          24.7190   -9.6770    6.6720 C.ar    1  UNL1       -0.0027
     15 C          27.3970   -6.2760    6.3310 C.3     1  UNL1        0.0061
     16 C          27.0930   -3.9130    5.7330 C.3     1  UNL1        0.0187
     17 C          24.3330  -11.4810    3.7910 C.ar    1  UNL1        0.0006
     18 C          24.7150  -14.9460    8.8960 C.ar    1  UNL1        0.0536
     19 C          25.2390  -15.0550   10.1120 C.ar    1  UNL1        0.0045
     20 C          23.6390  -16.9330   10.4160 C.ar    1  UNL1        0.0000
     21 C          23.6220  -15.8300    8.2840 C.ar    1  UNL1        0.0045
     22 C          22.4810  -12.8110    9.0780 C.3     1  UNL1        0.0203
     23 C          25.5470  -10.9540    6.5560 C.ar    1  UNL1       -0.0001
     24 C          23.4430  -11.1730    2.8300 C.ar    1  UNL1        0.0417
     25 C          25.3890   -8.5660    7.0020 C.ar    1  UNL1       -0.0045
     26 C          27.6050   -7.1920    7.5750 C.3     1  UNL1        0.0264
     27 C          27.7510   -4.7510    6.6740 C.3     1  UNL1        0.0177
     28 C          28.0460   -2.7210    5.7740 C.3     1  UNL1        0.0721
     29 C          21.9470  -11.3970    3.0260 C.ar    1  UNL1        0.1954
     30 C          29.2190   -4.5560    6.4310 C.3     1  UNL1        0.0721
     31 C          30.1620   -2.6390    6.2150 C.3     1  UNL1        0.0721
     32 C          30.2670   -1.2300    5.5620 C.3     1  UNL1        0.0173
     33 C          31.6240   -0.6050    5.9570 C.3     1  UNL1        0.0015
     34 C          24.8870  -12.2430    6.1200 C.3     1  UNL1        0.1203
     35 N          29.3030   -3.3710    5.6810 N.3     1  UNL1       -0.2727
     36 O          26.3490  -14.0800    7.4560 O.2     1  UNL1       -0.2699
     37 O          21.0560  -11.0100    2.0640 O.3     1  UNL1       -0.2866
@<TRIPOS>BOND
     1     3     2   ar
     2     4     3   ar
     3     5     3    1
     4     6     5    1
     5     6     1    1
     6     7     1   am
     7    10     6    1
     8    12    11   ar
     9    13    12   ar
    10    17     4   ar
    11    18     7    1
    12    19    18   ar
    13    19     8   ar
    14    20     9   ar
    15    20     8   ar
    16    21     9   ar
    17    21    18   ar
    18    22    10    1
    19    22     6    1
    20    23    11   ar
    21    23    14   ar
    22    24    17   ar
    23    25    14   ar
    24    25    13   ar
    25    26    13    1
    26    26    15    1
    27    27    16    1
    28    27    15    1
    29    28    16    1
    30    29     2   ar
    31    29    24   ar
    32    30    27    1
    33    32    31    1
    34    33    32    1
    35    34     4    1
    36    34    23    1
    37    34     1    1
    38    35    31    1
    39    35    30    1
    40    35    28    1
    41    36     7    2
    42    37    29    1
