@<TRIPOS>MOLECULE
5U2D_OBH_A601
 31 35 0 0 0
SMALL
GASTEIGER

@<TRIPOS>ATOM
      1 C          21.3570  -12.3390    5.1880 C.ar    1  UNL1        0.0030
      2 C          20.6950  -11.8670    4.0690 C.ar    1  UNL1        0.0420
      3 C          21.4150  -11.3290    3.0110 C.ar    1  UNL1        0.1957
      4 O          20.7450  -10.8790    1.9200 O.3     1  UNL1       -0.2866
      5 C          22.7980  -11.2380    3.0910 C.ar    1  UNL1        0.0420
      6 C          23.4570  -11.7100    4.2150 C.ar    1  UNL1        0.0030
      7 C          22.7480  -12.2690    5.2790 C.ar    1  UNL1       -0.0017
      8 C          23.4540  -12.7670    6.4830 C.2     1  UNL1        0.0030
      9 C          24.5900  -12.3820    7.1090 C.2     1  UNL1        0.0046
     10 C          25.4970  -11.2160    6.9710 C.ar    1  UNL1       -0.0017
     11 C          24.9760   -9.9330    6.8230 C.ar    1  UNL1        0.0030
     12 C          25.8030   -8.8230    6.8650 C.ar    1  UNL1        0.0420
     13 C          27.1710   -8.9840    7.0420 C.ar    1  UNL1        0.1957
     14 O          27.9590   -7.8860    7.1880 O.3     1  UNL1       -0.2866
     15 C          27.7100  -10.2590    7.1390 C.ar    1  UNL1        0.0420
     16 C          26.8760  -11.3660    7.1100 C.ar    1  UNL1        0.0030
     17 C          24.7400  -13.3520    8.2540 C.3     1  UNL1        0.1619
     18 O          24.1410  -14.5560    7.7560 O.3     1  UNL1       -0.3481
     19 C          22.9290  -13.9340    7.2990 C.3     1  UNL1        0.1395
     20 C          22.3240  -13.2760    8.5600 C.3     1  UNL1        0.0632
     21 C          23.6450  -12.8370    9.2190 C.3     1  UNL1        0.1914
     22 S          23.8180  -13.4650   10.8110 S.O2    1  UNL1        0.0953
     23 O          22.8750  -12.7670   11.6160 O.2     1  UNL1       -0.1464
     24 O          23.8540  -14.8980   10.7850 O.2     1  UNL1       -0.1464
     25 O          25.2550  -12.8830   11.2070 O.3     1  UNL1       -0.2179
     26 C          26.1780  -13.6370   11.9800 C.3     1  UNL1        0.1885
     27 C          25.7390  -14.3640   13.0840 C.2     1  UNL1        0.0056
     28 C          26.6700  -15.0300   13.8660 C.2     1  UNL1       -0.0232
     29 C          28.0210  -14.9710   13.5550 C.3     1  UNL1        0.0515
     30 C          28.4440  -14.2520   12.4560 C.2     1  UNL1       -0.0232
     31 C          27.5270  -13.5860   11.6550 C.2     1  UNL1        0.0056
@<TRIPOS>BOND
     1     2     1   ar
     2     3     2   ar
     3     4     3    1
     4     5     3   ar
     5     6     5   ar
     6     7     1   ar
     7     7     6   ar
     8     8     7    1
     9     9     8    2
    10    10     9    1
    11    11    10   ar
    12    12    11   ar
    13    13    12   ar
    14    14    13    1
    15    15    13   ar
    16    16    10   ar
    17    16    15   ar
    18    17     9    1
    19    18    17    1
    20    19    18    1
    21    19     8    1
    22    19    20    1
    23    21    20    1
    24    21    17    1
    25    22    21    1
    26    23    22    2
    27    24    22    2
    28    22    25    1
    29    26    25    1
    30    27    26    1
    31    28    27    2
    32    29    28    1
    33    30    29    1
    34    31    26    1
    35    31    30    2
