@<TRIPOS>MOLECULE
4MG8_27J_A601
 23 24 0 0 0
SMALL
GASTEIGER

@<TRIPOS>ATOM
      1 C          25.0070  -11.6350   10.9770 C.3     1  UNL1        0.0330
      2 C          23.7980  -12.0410   10.1840 C.3     1  UNL1        0.0063
      3 C          23.9870  -13.3600    9.5380 C.3     1  UNL1        0.0437
      4 C          22.9090  -13.6140    8.4990 C.3     1  UNL1        0.1693
      5 C          22.8310  -15.1120    8.1870 C.3     1  UNL1        0.0473
      6 O          23.1470  -12.8260    7.3440 O.3     1  UNL1       -0.4491
      7 C          22.1020  -12.4570    6.6460 C.2     1  UNL1        0.3439
      8 O          20.9730  -12.6910    7.0270 O.2     1  UNL1       -0.2448
      9 C          22.3420  -11.8580    5.3620 C.ar    1  UNL1        0.1107
     10 C          21.2660  -11.5400    4.5680 C.ar    1  UNL1        0.2048
     11 O          20.0400  -11.7510    5.0550 O.3     1  UNL1       -0.2863
     12 C          21.3790  -10.9910    3.3230 C.ar    1  UNL1        0.0842
     13 C          22.6040  -10.7670    2.8060 C.ar    1  UNL1        0.1986
     14 O          22.6950  -10.2270    1.5910 O.3     1  UNL1       -0.2865
     15 C          23.6990  -11.0880    3.5430 C.ar    1  UNL1        0.0382
     16 C          23.6240  -11.6130    4.8040 C.ar    1  UNL1       -0.0096
     17 C          24.8210  -11.8890    5.4150 C.3     1  UNL1        0.0268
     18 C          25.2730  -10.7370    6.2390 C.3     1  UNL1        0.0047
     19 C          26.4590  -11.0400    7.0460 C.3     1  UNL1        0.0004
     20 C          26.8110   -9.9290    8.0300 C.3     1  UNL1        0.0026
     21 C          26.0210   -9.9890    9.3780 C.3     1  UNL1        0.0329
     22 C          26.2270  -11.2650   10.1390 C.3     1  UNL1        0.1520
     23 O          27.3240  -11.0720   10.9530 O.3     1  UNL1       -0.2232
@<TRIPOS>BOND
     1     2     1    1
     2     3     2    1
     3     4     3    1
     4     4     5    1
     5     6     4    1
     6     7     6    1
     7     8     7    2
     8     9     7    1
     9    10     9   ar
    10    11    10    1
    11    12    10   ar
    12    13    12   ar
    13    14    13    1
    14    15    13   ar
    15    16    15   ar
    16    16     9   ar
    17    17    16    1
    18    18    17    1
    19    19    18    1
    20    20    19    1
    21    21    20    1
    22    22     1    1
    23    22    21    1
    24    22    23    1
