@<TRIPOS>MOLECULE
5ACC_KE9_A1546
 32 35 0 0 0
SMALL
GASTEIGER

@<TRIPOS>ATOM
      1 C          23.1400  -14.6540    7.7450 C.3     1  UNL1        0.0177
      2 C          22.9370  -13.1710    8.0760 C.3     1  UNL1        0.0626
      3 C          22.0170  -12.4990    7.0650 C.3     1  UNL1        0.0436
      4 C          22.7760  -12.1870    5.8100 C.ar    1  UNL1       -0.0042
      5 C          22.2890  -11.9430    4.4980 C.ar    1  UNL1        0.0149
      6 C          21.0160  -11.9040    3.9480 C.ar    1  UNL1        0.0012
      7 C          20.9060  -11.6290    2.5940 C.ar    1  UNL1        0.0001
      8 C          22.0200  -11.3920    1.8110 C.ar    1  UNL1        0.0015
      9 C          23.2980  -11.4270    2.3460 C.ar    1  UNL1        0.0191
     10 C          23.3950  -11.7080    3.6920 C.ar    1  UNL1        0.0807
     11 N          24.5220  -11.7980    4.4840 N.ar    1  UNL1       -0.2483
     12 C          24.1410  -12.0920    5.7720 C.ar    1  UNL1        0.0739
     13 C          25.0630  -12.2580    6.9240 C.3     1  UNL1        0.1250
     14 N          24.2350  -12.4060    8.2000 N.3     1  UNL1       -0.2642
     15 C          25.0830  -12.7910    9.3730 C.3     1  UNL1        0.1055
     16 C          24.8030  -11.8920   10.5830 C.3     1  UNL1        0.1486
     17 C          25.7800  -12.2050   11.6840 C.3     1  UNL1        0.0368
     18 C          24.8280  -10.4090   10.3160 C.3     1  UNL1        0.0368
     19 F          23.5630  -12.1650   11.0540 F       1  UNL1       -0.2386
     20 C          26.0040  -11.0700    7.0390 C.ar    1  UNL1        0.0528
     21 C          25.5390   -9.7690    6.9580 C.ar    1  UNL1        0.1399
     22 C          26.3670   -8.6720    7.0830 C.ar    1  UNL1        0.0295
     23 C          27.7200   -8.8470    7.2930 C.ar    1  UNL1        0.0047
     24 C          28.2200  -10.1310    7.3760 C.ar    1  UNL1        0.0295
     25 C          27.3640  -11.2170    7.2540 C.ar    1  UNL1        0.1399
     26 F          27.8800  -12.4300    7.3630 F       1  UNL1       -0.2044
     27 C          28.6160   -7.6960    7.4180 C.2     1  UNL1        0.0069
     28 C          28.3110   -6.5690    6.7620 C.2     1  UNL1        0.0861
     29 C          29.2750   -5.4080    6.9240 C.2     1  UNL1        0.3880
     30 O          28.8670   -4.3310    6.3970 O.co2   1  UNL1       -0.2405
     31 O          30.3530   -5.6230    7.5490 O.co2   1  UNL1       -0.2405
     32 F          24.2480   -9.5340    6.7650 F       1  UNL1       -0.2044
@<TRIPOS>BOND
     1     2     1    1
     2     3     2    1
     3     4     3    1
     4     5     4   ar
     5     6     5   ar
     6     7     6   ar
     7     8     7   ar
     8     9     8   ar
     9    10     9   ar
    10    10     5   ar
    11    11    10   ar
    12    12    11   ar
    13    12     4   ar
    14    13    12    1
    15    14    13    1
    16    14     2    1
    17    15    14    1
    18    16    15    1
    19    16    17    1
    20    18    16    1
    21    19    16    1
    22    13    20    1
    23    21    20   ar
    24    22    21   ar
    25    23    22   ar
    26    24    23   ar
    27    25    20   ar
    28    25    24   ar
    29    26    25    1
    30    27    23    1
    31    28    27    2
    32    29    28    1
    33    30    29   ar
    34    31    29   ar
    35    32    21    1
