@<TRIPOS>MOLECULE
8VQY_A1ADG_E401
 19 21 0 0 0
SMALL
GASTEIGER

@<TRIPOS>ATOM
      1 C         237.0060  214.2080  238.5590 C.3     1  UNL1        0.0326
      2 C         238.0580  215.0950  238.7630 C.ar    1  UNL1       -0.0056
      3 C         238.6020  215.6370  237.6120 C.ar    1  UNL1       -0.0028
      4 C         239.6590  216.5250  237.6760 C.ar    1  UNL1       -0.0002
      5 C         240.1830  216.8820  238.9040 C.ar    1  UNL1        0.0015
      6 C         239.6460  216.3390  240.0560 C.ar    1  UNL1        0.0173
      7 C         238.5810  215.4540  240.0160 C.ar    1  UNL1        0.0639
      8 C         238.5350  213.7440  241.6060 C.ar    1  UNL1        0.1267
      9 C         237.3360  213.9040  243.5840 C.ar    1  UNL1        0.0872
     10 C         236.9380  213.3330  244.7850 C.ar    1  UNL1        0.0193
     11 C         236.1020  214.0380  245.6360 C.ar    1  UNL1        0.0015
     12 C         235.6700  215.3080  245.2740 C.ar    1  UNL1        0.0003
     13 C         236.0680  215.8760  244.0690 C.ar    1  UNL1        0.0063
     14 C         236.9100  215.1690  243.2110 C.ar    1  UNL1        0.0742
     15 C         237.3420  215.6930  241.9910 C.ar    1  UNL1        0.2669
     16 C         239.3730  212.9730  240.8350 C.3     1  UNL1        0.0723
     17 N         238.1440  214.9660  241.1990 N.ar    1  UNL1       -0.2629
     18 N         238.1390  213.2220  242.7710 N.ar    1  UNL1       -0.2318
     19 O         237.0050  216.8110  241.6190 O.2     1  UNL1       -0.2665
@<TRIPOS>BOND
     1     2     1    1
     2     3     2   ar
     3     4     3   ar
     4     5     4   ar
     5     6     5   ar
     6     7     2   ar
     7     7     6   ar
     8    10     9   ar
     9    11    10   ar
    10    12    11   ar
    11    13    12   ar
    12    14    13   ar
    13    14     9   ar
    14    15    14   ar
    15    16     8    1
    16    17    15   ar
    17    17     8   ar
    18    17     7    1
    19    18     9   ar
    20    18     8   ar
    21    19    15    2
