@<TRIPOS>MOLECULE
6X3X_DZP_D404
 20 22 0 0 0
SMALL
GASTEIGER

@<TRIPOS>ATOM
      1 C         236.8630  212.4920  243.6030 C.ar    1  UNL1        0.0000
      2 C         235.9790  213.1180  244.5710 C.ar    1  UNL1        0.0000
      3 C         235.6390  214.5230  244.4580 C.ar    1  UNL1        0.0000
      4 C         236.1830  215.3060  243.3700 C.ar    1  UNL1        0.0015
      5 C         237.4920  215.7860  241.3440 C.2     1  UNL1        0.0777
      6 C         238.2530  215.9050  238.8200 C.ar    1  UNL1        0.0554
      7 C         238.1300  215.5010  237.4140 C.ar    1  UNL1        0.0158
      8 C         237.1020  214.5720  236.9820 C.ar    1  UNL1        0.0127
      9 C         236.1930  214.0290  237.9710 C.ar    1  UNL1        0.0578
     10 C         237.4120  213.2720  242.5120 C.ar    1  UNL1        0.0015
     11 C         237.0680  214.6730  242.4080 C.ar    1  UNL1        0.0173
     12 C         237.3320  215.3390  239.8000 C.ar    1  UNL1        0.0318
     13 C         236.3070  214.3980  239.3650 C.ar    1  UNL1        0.0141
     14 N         237.0460  217.1930  241.6730 N.2     1  UNL1       -0.2605
     15 C         237.3890  218.2390  240.6460 C.3     1  UNL1        0.2104
     16 C         238.8990  218.0460  240.1740 C.2     1  UNL1        0.2542
     17 C         240.7910  216.7290  238.8520 C.3     1  UNL1        0.1201
     18 N         239.3460  216.8880  239.2950 N.am    1  UNL1       -0.2552
     19 O         239.7500  218.8620  240.5620 O.2     1  UNL1       -0.2724
     20 CL        234.8650  212.8340  237.4570 Cl      1  UNL1       -0.0822
@<TRIPOS>BOND
     1     2     1   ar
     2     3     2   ar
     3     4     3   ar
     4     7     6   ar
     5     8     7   ar
     6     9     8   ar
     7    10     1   ar
     8    11    10   ar
     9    11     5    1
    10    11     4   ar
    11    12     6   ar
    12    12     5    1
    13    13     9   ar
    14    13    12   ar
    15    14     5    2
    16    15    14    1
    17    16    15    1
    18    18     6    1
    19    18    16   am
    20    18    17    1
    21    19    16    2
    22    20     9    1
