@<TRIPOS>MOLECULE
4COF_BEN_E500
 9 9 0 0 0
SMALL
GASTEIGER

@<TRIPOS>ATOM
      1  C1       236.1660  215.3800  245.7720 C.ar  500  BEN500      0.0975
      2  C2       236.4220  214.8570  244.4530 C.ar  500  BEN500      0.0080
      3  C3       236.9240  215.6880  243.4230 C.ar  500  BEN500      0.0003
      4  C4       237.1800  217.0510  243.7210 C.ar  500  BEN500      0.0000
      5  C5       236.9290  217.5990  245.0070 C.ar  500  BEN500      0.0003
      6  C6       236.4310  216.7730  246.0350 C.ar  500  BEN500      0.0080
      7  C        235.6190  214.4930  246.8340 C.2   500  BEN500      0.4766
      8  N1       235.3860  215.0080  247.9960 N.pl3 500  BEN500      0.2047
      9  N2       235.3660  213.1470  246.6070 N.pl3 500  BEN500      0.2047
@<TRIPOS>BOND
     1     3     4   ar
     2     3     2   ar
     3     4     5   ar
     4     2     1   ar
     5     5     6   ar
     6     1     6   ar
     7     1     7    1
     8     9     7    2
     9     7     8    1
