@<TRIPOS>MOLECULE
1QBR_XV6_A638
 54 60 0 0 0
SMALL
GASTEIGER

@<TRIPOS>ATOM
      1 O          -8.4710   14.2080   27.8280 O.2     1  UNL1       -0.2523
      2 O         -11.8630   18.6970   28.7450 O.3     1  UNL1       -0.2186
      3 O          -9.9500   19.7260   27.0440 O.3     1  UNL1       -0.2186
      4 N          -9.7970   15.6180   28.8940 N.am    1  UNL1       -0.2586
      5 N          -8.6830   16.2020   26.9020 N.am    1  UNL1       -0.2586
      6 C          -8.9810   15.3180   27.8710 C.2     1  UNL1        0.3077
      7 C          -9.6330   14.8340   30.1280 C.3     1  UNL1        0.1217
      8 C         -10.9420   16.5430   28.8010 C.3     1  UNL1        0.1144
      9 C         -10.6670   18.0140   28.5710 C.3     1  UNL1        0.2021
     10 C         -10.1390   18.3270   27.2040 C.3     1  UNL1        0.2021
     11 C          -8.7830   17.6790   27.0220 C.3     1  UNL1        0.1144
     12 C          -8.0270   15.6760   25.6900 C.3     1  UNL1        0.1217
     13 C         -12.0260   15.9150   27.9060 C.3     1  UNL1        0.0489
     14 C         -12.5840   14.6530   28.5070 C.ar    1  UNL1       -0.0204
     15 C         -12.1820   13.3970   28.0110 C.ar    1  UNL1       -0.0042
     16 C         -12.6260   12.2280   28.6670 C.ar    1  UNL1       -0.0003
     17 C         -13.4670   12.3110   29.7950 C.ar    1  UNL1       -0.0000
     18 C         -13.8810   13.5750   30.2790 C.ar    1  UNL1       -0.0003
     19 C         -13.4380   14.7430   29.6320 C.ar    1  UNL1       -0.0042
     20 C          -7.6890   18.2030   27.9700 C.3     1  UNL1        0.0489
     21 C          -6.3550   18.0820   27.2900 C.ar    1  UNL1       -0.0204
     22 C          -6.0570   18.9620   26.2240 C.ar    1  UNL1       -0.0042
     23 C          -4.8400   18.8320   25.5350 C.ar    1  UNL1       -0.0003
     24 C          -3.9290   17.8240   25.9270 C.ar    1  UNL1       -0.0000
     25 C          -4.2310   16.9540   26.9940 C.ar    1  UNL1       -0.0003
     26 C          -5.4530   17.0720   27.6860 C.ar    1  UNL1       -0.0042
     27 C          -9.4700   15.5910   31.4310 C.ar    1  UNL1       -0.0021
     28 C         -10.1440   15.0960   32.5600 C.ar    1  UNL1        0.0020
     29 C         -10.0200   15.7450   33.8120 C.ar    1  UNL1        0.0552
     30 C          -9.2110   16.9030   33.9330 C.ar    1  UNL1        0.0046
     31 C          -8.5240   17.4060   32.8060 C.ar    1  UNL1       -0.0001
     32 C          -8.6590   16.7480   31.5570 C.ar    1  UNL1       -0.0026
     33 C         -10.7380   15.1780   35.0120 C.2     1  UNL1        0.2707
     34 O         -11.0340   15.8120   36.0170 O.2     1  UNL1       -0.2679
     35 N         -11.0160   13.8780   34.8800 N.am    1  UNL1       -0.1505
     36 N         -11.6700   11.7360   35.9540 N.ar    1  UNL1       -0.2209
     37 C         -11.6440   13.0700   35.9180 C.ar    1  UNL1        0.1861
     38 C         -12.2840   11.2490   37.0910 C.ar    1  UNL1        0.1079
     39 S         -12.3810   13.6870   37.2860 S.2     1  UNL1       -0.0491
     40 C         -12.7680   12.2140   37.9900 C.ar    1  UNL1        0.0588
     41 C          -8.7350   15.9440   24.3910 C.ar    1  UNL1       -0.0021
     42 C          -7.9630   16.2360   23.2520 C.ar    1  UNL1        0.0020
     43 C          -8.5980   16.5230   22.0200 C.ar    1  UNL1        0.0552
     44 C         -10.0060   16.5010   21.9260 C.ar    1  UNL1        0.0046
     45 C         -10.7740   16.1980   23.0660 C.ar    1  UNL1       -0.0001
     46 C         -10.1440   15.9220   24.3030 C.ar    1  UNL1       -0.0026
     47 C          -7.7930   16.8870   20.8140 C.2     1  UNL1        0.2707
     48 O          -8.2530   17.4910   19.8580 O.2     1  UNL1       -0.2679
     49 N          -6.5170   16.4630   20.8420 N.am    1  UNL1       -0.1505
     50 N          -4.5030   15.9830   19.4490 N.ar    1  UNL1       -0.2209
     51 C          -5.6120   16.7020   19.7240 C.ar    1  UNL1        0.1861
     52 C          -3.8930   16.3690   18.2710 C.ar    1  UNL1        0.1079
     53 S          -5.8740   17.8570   18.5200 S.2     1  UNL1       -0.0491
     54 C          -4.5280   17.4240   17.5830 C.ar    1  UNL1        0.0588
@<TRIPOS>BOND
     1     6     5   am
     2     6     4   am
     3     6     1    2
     4     7     4    1
     5     8     4    1
     6     9     8    1
     7     9     2    1
     8    10     3    1
     9    10     9    1
    10    11     5    1
    11    11    10    1
    12    12     5    1
    13     8    13    1
    14    14    13    1
    15    15    14   ar
    16    16    15   ar
    17    17    16   ar
    18    18    17   ar
    19    19    18   ar
    20    19    14   ar
    21    11    20    1
    22    21    20    1
    23    22    21   ar
    24    23    22   ar
    25    24    23   ar
    26    25    24   ar
    27    26    21   ar
    28    26    25   ar
    29    27     7    1
    30    28    27   ar
    31    29    28   ar
    32    30    29   ar
    33    31    30   ar
    34    32    27   ar
    35    32    31   ar
    36    33    29    1
    37    34    33    2
    38    35    33   am
    39    37    36   ar
    40    37    35    1
    41    38    36   ar
    42    39    37   ar
    43    40    39   ar
    44    40    38   ar
    45    41    12    1
    46    42    41   ar
    47    43    42   ar
    48    44    43   ar
    49    45    44   ar
    50    46    45   ar
    51    46    41   ar
    52    47    43    1
    53    48    47    2
    54    49    47   am
    55    51    49    1
    56    51    50   ar
    57    52    50   ar
    58    53    51   ar
    59    54    53   ar
    60    54    52   ar
