@<TRIPOS>MOLECULE
6E9A_J0S_B201
 40 43 0 0 0
SMALL
GASTEIGER

@<TRIPOS>ATOM
      1 O          -8.3730   17.4650   19.5950 O.3     1  UNL1       -0.4714
      2 C          -7.0800   17.5320   19.0200 C.3     1  UNL1        0.2525
      3 C          -8.3830   16.9370   20.8500 C.ar    1  UNL1        0.1388
      4 C          -9.6290   16.9700   21.4990 C.ar    1  UNL1        0.0383
      5 C          -9.7320   16.5950   22.8390 C.ar    1  UNL1        0.0230
      6 C          -8.6110   16.1790   23.5490 C.ar    1  UNL1        0.1224
      7 C          -7.3940   16.1350   22.8910 C.ar    1  UNL1        0.0230
      8 C          -7.2650   16.4840   21.5320 C.ar    1  UNL1        0.0383
      9 S          -8.7600   15.8020   25.2570 S.O2    1  UNL1        0.0634
     10 O         -10.0730   15.1620   25.5050 O.2     1  UNL1       -0.1528
     11 O          -7.5410   15.0630   25.6560 O.2     1  UNL1       -0.1528
     12 N          -8.7380   17.2260   26.0760 N.3     1  UNL1       -0.1529
     13 C          -7.5550   18.0530   25.8810 C.3     1  UNL1        0.0958
     14 C          -6.9600   18.6490   27.1710 C.3     1  UNL1        0.0178
     15 C          -6.4360   17.5760   28.1160 C.3     1  UNL1        0.0015
     16 C          -5.8570   19.6610   26.7860 C.3     1  UNL1        0.0015
     17 C          -9.9970   17.8670   26.3500 C.3     1  UNL1        0.1304
     18 C         -10.2750   17.8950   27.8630 C.3     1  UNL1        0.1898
     19 O         -11.3110   18.8620   28.0930 O.3     1  UNL1       -0.2197
     20 C         -10.6870   16.5290   28.4150 C.3     1  UNL1        0.1347
     21 N         -10.6720   16.6020   29.9060 N.am    1  UNL1       -0.1675
     22 C          -9.6810   16.1450   30.6610 C.2     1  UNL1        0.4210
     23 O          -8.6670   15.5900   30.2510 O.2     1  UNL1       -0.2246
     24 O          -9.8620   16.3310   32.0080 O.3     1  UNL1       -0.4371
     25 C          -8.8420   15.7240   32.8100 C.3     1  UNL1        0.1760
     26 C          -9.0710   16.2350   34.2270 C.3     1  UNL1        0.0892
     27 C         -10.1740   15.3500   34.8040 C.3     1  UNL1        0.1941
     28 O         -11.4220   16.0070   34.6120 O.3     1  UNL1       -0.4354
     29 C         -12.1990   15.3630   33.7280 C.2     1  UNL1        0.4211
     30 O         -13.3380   15.8120   33.4210 O.2     1  UNL1       -0.2246
     31 N         -11.5680   14.2610   33.3460 N.am    1  UNL1       -0.1667
     32 C         -10.2460   14.1190   33.9170 C.3     1  UNL1        0.1423
     33 C          -9.1130   14.2460   32.9200 C.3     1  UNL1        0.0693
     34 C         -12.0860   16.0790   27.9480 C.3     1  UNL1        0.0508
     35 C         -13.1790   14.5010   29.6780 C.ar    1  UNL1       -0.0042
     36 C         -13.3970   13.2320   30.2070 C.ar    1  UNL1       -0.0003
     37 C         -12.8840   12.1090   29.5620 C.ar    1  UNL1       -0.0000
     38 C         -12.1330   12.2420   28.3900 C.ar    1  UNL1       -0.0003
     39 C         -11.8900   13.5260   27.8840 C.ar    1  UNL1       -0.0042
     40 C         -12.4060   14.6720   28.5210 C.ar    1  UNL1       -0.0204
@<TRIPOS>BOND
     1     2     1    1
     2     3     1    1
     3     4     3   ar
     4     5     4   ar
     5     6     5   ar
     6     7     6   ar
     7     8     7   ar
     8     8     3   ar
     9     9     6    1
    10    10     9    2
    11    11     9    2
    12     9    12    1
    13    13    12    1
    14    14    13    1
    15    14    15    1
    16    16    14    1
    17    17    12    1
    18    18    17    1
    19    18    19    1
    20    20    18    1
    21    21    20    1
    22    22    21   am
    23    23    22    2
    24    24    22    1
    25    25    24    1
    26    26    25    1
    27    27    26    1
    28    28    27    1
    29    29    28    1
    30    30    29    2
    31    31    29   am
    32    32    31    1
    33    32    27    1
    34    32    33    1
    35    33    25    1
    36    20    34    1
    37    36    35   ar
    38    37    36   ar
    39    38    37   ar
    40    39    38   ar
    41    40    39   ar
    42    40    35   ar
    43    40    34    1
