@<TRIPOS>MOLECULE
1HWI_115_A2
 30 32 0 0 0
SMALL
GASTEIGER

@<TRIPOS>ATOM
      1 C          18.7110    9.5730   15.4560 C.ar    1  UNL1        0.0172
      2 C          19.1570    9.7370   14.1580 C.ar    1  UNL1        0.0598
      3 C          20.3710   10.4260   13.9180 C.ar    1  UNL1        0.0172
      4 C          21.1090   10.9360   15.0060 C.ar    1  UNL1        0.0015
      5 C          20.6360   10.7580   16.3240 C.ar    1  UNL1        0.0001
      6 C          19.4350   10.0740   16.5600 C.ar    1  UNL1        0.0015
      7 C          17.4130    8.8160   15.4350 C.ar    1  UNL1        0.0172
      8 C          17.2390    8.6210   14.1110 C.ar    1  UNL1        0.0596
      9 N          18.3250    9.1920   13.3250 N.ar    1  UNL1       -0.3291
     10 C          15.2570    8.9130   18.5980 C.ar    1  UNL1        0.0296
     11 C          16.0730    9.3370   17.5400 C.ar    1  UNL1        0.0024
     12 C          16.5490    8.3940   16.6130 C.ar    1  UNL1        0.0016
     13 C          16.2070    7.0340   16.7480 C.ar    1  UNL1        0.0024
     14 C          15.3980    6.6200   17.7990 C.ar    1  UNL1        0.0296
     15 C          14.9220    7.5580   18.7230 C.ar    1  UNL1        0.1401
     16 F          14.1280    7.1420   19.7490 F       1  UNL1       -0.2042
     17 O          13.9170    1.7390   16.0260 O.co2   1  UNL1       -0.2456
     18 O          16.0150    2.5840   16.2330 O.co2   1  UNL1       -0.2456
     19 O          13.5600    4.7360   14.4600 O.3     1  UNL1       -0.2224
     20 C          14.8820    2.3180   15.5430 C.2     1  UNL1        0.3674
     21 C          14.9390    2.8060   14.1040 C.3     1  UNL1        0.1469
     22 C          14.8260    4.3300   13.9460 C.3     1  UNL1        0.1661
     23 C          14.8970    4.7520   12.4740 C.3     1  UNL1        0.0709
     24 C          14.8040    6.2720   12.2820 C.3     1  UNL1        0.1766
     25 C          16.0690    6.9470   12.7470 C.2     1  UNL1        0.0077
     26 C          16.1520    7.9460   13.6220 C.2     1  UNL1        0.0151
     27 C          18.5070    8.9310   11.8220 C.3     1  UNL1        0.0856
     28 C          18.5400   10.2360   11.0050 C.3     1  UNL1        0.0245
     29 C          19.7710    8.0800   11.5440 C.3     1  UNL1        0.0245
     30 O          14.5840    6.4920   10.9180 O.3     1  UNL1       -0.2182
@<TRIPOS>BOND
     1     2     1   ar
     2     3     2   ar
     3     4     3   ar
     4     5     4   ar
     5     6     5   ar
     6     6     1   ar
     7     7     1   ar
     8     8     7   ar
     9     9     8   ar
    10     9     2   ar
    11    11    10   ar
    12    12    11   ar
    13    12     7    1
    14    13    12   ar
    15    14    13   ar
    16    15    14   ar
    17    15    10   ar
    18    16    15    1
    19    20    18   ar
    20    20    17   ar
    21    21    20    1
    22    22    21    1
    23    22    19    1
    24    23    22    1
    25    24    23    1
    26    25    24    1
    27    26    25    2
    28    26     8    1
    29    27     9    1
    30    27    28    1
    31    29    27    1
    32    24    30    1
