@<TRIPOS>MOLECULE
3CCW_4HI_C4
 36 38 0 0 0
SMALL
GASTEIGER

@<TRIPOS>ATOM
      1 N          17.7610    8.8830   13.7530 N.ar    1  UNL1       -0.3147
      2 N          19.1390    9.3720   15.4010 N.ar    1  UNL1       -0.2225
      3 C          23.2930   10.6500   15.1880 C.3     1  UNL1        0.1418
      4 C          17.8740    9.0740   15.0840 C.ar    1  UNL1        0.1437
      5 C          19.4290    8.9850   11.7890 C.3     1  UNL1        0.0401
      6 C          16.5010    8.5340   13.0590 C.3     1  UNL1        0.1098
      7 C          16.2910    7.0290   13.2070 C.3     1  UNL1        0.0575
      8 C          15.0850    4.9030   12.6680 C.3     1  UNL1        0.0664
      9 C          18.8850   10.1990   11.0460 C.3     1  UNL1        0.0063
     10 C          14.8030    9.7750   17.1720 C.ar    1  UNL1        0.0297
     11 C          25.2340   11.5170   13.8690 C.ar    1  UNL1       -0.0026
     12 C          25.8060   12.3600   12.9190 C.ar    1  UNL1       -0.0003
     13 C          16.9800    8.0400   17.1300 C.ar    1  UNL1        0.0053
     14 C          16.0390    7.9490   18.1420 C.ar    1  UNL1        0.0297
     15 C          23.0700   12.4960   13.4580 C.ar    1  UNL1       -0.0026
     16 O          21.9520    8.8910   13.3960 O.2     1  UNL1       -0.2667
     17 C          21.2890    9.6320   14.1060 C.2     1  UNL1        0.2840
     18 N          21.8650   10.4620   14.9710 N.am    1  UNL1       -0.1955
     19 C          23.8690   11.5810   14.1450 C.ar    1  UNL1       -0.0006
     20 C          23.6420   13.3430   12.5080 C.ar    1  UNL1       -0.0003
     21 C          25.0080   13.2760   12.2360 C.ar    1  UNL1       -0.0000
     22 C          19.8360    9.3730   14.2690 C.ar    1  UNL1        0.1493
     23 C          18.9900    9.0600   13.2140 C.ar    1  UNL1        0.0601
     24 C          19.0540    7.6720   11.1140 C.3     1  UNL1        0.0063
     25 C          16.8330    8.9940   16.1350 C.ar    1  UNL1        0.0343
     26 C          14.9560    8.8130   18.1630 C.ar    1  UNL1        0.1401
     27 F          14.0520    8.6960   19.1490 F       1  UNL1       -0.2042
     28 C          15.7520    9.8740   16.1590 C.ar    1  UNL1        0.0053
     29 C          15.0450    6.4240   12.5460 C.3     1  UNL1        0.1565
     30 O          14.9800    6.7000   11.1580 O.3     1  UNL1       -0.2230
     31 C          14.8210    4.4100   14.0800 C.3     1  UNL1        0.1658
     32 O          13.5040    4.7600   14.4490 O.3     1  UNL1       -0.2225
     33 C          14.9730    2.8970   14.1410 C.3     1  UNL1        0.1469
     34 C          15.1160    2.4470   15.5740 C.2     1  UNL1        0.3674
     35 O          14.1290    1.9410   16.1520 O.co2   1  UNL1       -0.2456
     36 O          16.2230    2.5750   16.1280 O.co2   1  UNL1       -0.2456
@<TRIPOS>BOND
     1     4     2   ar
     2     4     1   ar
     3     6     1    1
     4     7     6    1
     5     5     9    1
     6    12    11   ar
     7    14    13   ar
     8    17    16    2
     9    18    17   am
    10    18     3    1
    11    19     3    1
    12    19    15   ar
    13    19    11   ar
    14    20    15   ar
    15    21    20   ar
    16    21    12   ar
    17    22    17    1
    18    22     2   ar
    19    23    22   ar
    20    23     5    1
    21    23     1   ar
    22    24     5    1
    23    25     4    1
    24    25    13   ar
    25    26    14   ar
    26    26    10   ar
    27    27    26    1
    28    28    10   ar
    29    28    25   ar
    30    29     8    1
    31    29     7    1
    32    29    30    1
    33    31     8    1
    34    31    32    1
    35    33    31    1
    36    34    33    1
    37    35    34   ar
    38    36    34   ar
