@<TRIPOS>MOLECULE
2W8G_BS2_A1206
 31 36 0 0 0
SMALL
GASTEIGER

@<TRIPOS>ATOM
      1 C         169.9350  121.4360  185.6330 C.ar    1  UNL1        0.0048
      2 C         169.4450  121.7020  186.8930 C.ar    1  UNL1       -0.0019
      3 C         170.3010  122.1710  187.8670 C.ar    1  UNL1       -0.0003
      4 C         171.6410  122.3670  187.5890 C.ar    1  UNL1       -0.0003
      5 C         172.1410  122.0840  186.3320 C.ar    1  UNL1       -0.0045
      6 C         171.2580  121.6510  185.3540 C.ar    1  UNL1       -0.0232
      7 C         171.8930  121.3490  184.0060 C.3     1  UNL1        0.0308
      8 C         172.0420  119.8160  183.9940 C.3     1  UNL1        0.0308
      9 C         170.7000  119.1710  183.5920 C.ar    1  UNL1       -0.0232
     10 C         170.9620  118.0020  182.8570 C.ar    1  UNL1       -0.0045
     11 C         169.9010  117.2490  182.3620 C.ar    1  UNL1       -0.0003
     12 C         168.5970  117.6800  182.6220 C.ar    1  UNL1       -0.0003
     13 C         168.3420  118.8590  183.3480 C.ar    1  UNL1       -0.0019
     14 C         169.3890  119.6360  183.8420 C.ar    1  UNL1        0.0048
     15 C         168.8650  120.9090  184.6470 C.3     1  UNL1        0.1590
     16 O         168.2720  122.0630  183.9250 O.3     1  UNL1       -0.3495
     17 C         167.9100  123.2490  184.7180 C.3     1  UNL1        0.1275
     18 C         166.4710  123.1970  185.2580 C.3     1  UNL1        0.0864
     19 C         168.0310  124.5150  183.8660 C.3     1  UNL1        0.0864
     20 C         166.9360  124.5010  182.7810 C.3     1  UNL1        0.0897
     21 C         166.8930  123.1040  182.1140 C.3     1  UNL1        0.0627
     22 C         165.9050  122.3110  183.0160 C.3     1  UNL1        0.0627
     23 C         165.4750  123.2980  184.0990 C.3     1  UNL1        0.0897
     24 N         165.5930  124.5980  183.3990 N.4     1  UNL1        0.3722
     25 C         164.5070  124.5940  182.3930 C.3     1  UNL1        0.1656
     26 C         164.7280  125.4080  181.1100 C.ar    1  UNL1        0.0344
     27 C         165.4080  126.6190  181.1150 C.ar    1  UNL1        0.0014
     28 C         165.5680  127.3520  179.9440 C.ar    1  UNL1       -0.0001
     29 C         165.0260  126.8760  178.7710 C.ar    1  UNL1       -0.0000
     30 C         164.3270  125.6860  178.7570 C.ar    1  UNL1       -0.0001
     31 C         164.1760  124.9440  179.9180 C.ar    1  UNL1        0.0014
@<TRIPOS>UNITY_ATOM_ATTR
24 1
charge 1
@<TRIPOS>BOND
     1     2     1   ar
     2     3     2   ar
     3     4     3   ar
     4     5     4   ar
     5     6     5   ar
     6     6     1   ar
     7     7     6    1
     8     8     7    1
     9     9     8    1
    10    10     9   ar
    11    11    10   ar
    12    12    11   ar
    13    13    12   ar
    14    14    13   ar
    15    14     9   ar
    16    15    14    1
    17    15     1    1
    18    15    16    1
    19    17    16    1
    20    18    17    1
    21    19    17    1
    22    20    19    1
    23    21    20    1
    24    22    21    1
    25    23    22    1
    26    23    18    1
    27    24    23    1
    28    24    20    1
    29    25    24    1
    30    26    25    1
    31    27    26   ar
    32    28    27   ar
    33    29    28   ar
    34    30    29   ar
    35    31    30   ar
    36    31    26   ar
