@<TRIPOS>MOLECULE
4ZK1_4P7_A303
 33 35 0 0 0
SMALL
GASTEIGER

@<TRIPOS>ATOM
      1  C17      171.2680  121.5100  188.8400 C.ar  303  4P7303     -0.0433
      2  C16      170.2820  121.4310  187.8800 C.ar  303  4P7303     -0.0535
      3  C4       169.7100  120.1210  182.5430 C.ar  303  4P7303     -0.0373
      4  C18      171.8350  122.7370  189.1170 C.ar  303  4P7303      0.0276
      5  C14      170.5310  123.7750  187.5930 C.ar  303  4P7303      0.0329
      6  C3       170.4790  119.3130  181.7380 C.ar  303  4P7303      0.0022
      7  C1       171.7260  119.8450  183.5140 C.ar  303  4P7303      0.0088
      8  C15      169.9170  122.5930  187.2470 C.ar  303  4P7303     -0.0013
      9  C5       170.5010  120.4540  183.6730 C.ar  303  4P7303     -0.0077
     10  C12      168.8700  122.6360  186.2220 C.3   303  4P7303      0.1115
     11  C11      168.9570  121.7440  185.0540 C.2   303  4P7303     -0.0407
     12  C6       170.1760  121.2790  184.7790 C.2   303  4P7303     -0.0517
     13  C10      167.7260  121.4900  184.2670 C.3   303  4P7303     -0.0280
     14  C9       166.5550  122.1130  184.9770 C.3   303  4P7303     -0.0350
     15  C8       166.9310  123.5250  185.3360 C.3   303  4P7303      0.0157
     16  N13      171.4930  123.8830  188.5140 N.ar  303  4P7303     -0.2629
     17  N7       167.9320  123.5110  186.3960 N.3   303  4P7303     -0.2221
     18  N2       171.6950  119.1490  182.3390 N.ar  303  4P7303     -0.3664
     19  H32      171.5960  120.6220  189.3670 H     303  4P7303      0.0633
     20  H31      169.8120  120.4850  187.6350 H     303  4P7303      0.0622
     21  H22      168.6960  120.4360  182.3420 H     303  4P7303      0.0638
     22  H33      172.6140  122.8220  189.8640 H     303  4P7303      0.0829
     23  H30      170.2500  124.7010  187.1050 H     303  4P7303      0.0833
     24  H21      170.2630  118.8370  180.7940 H     303  4P7303      0.0807
     25  H19      172.6080  119.8420  184.1360 H     303  4P7303      0.0813
     26  H23      170.9910  121.5720  185.4300 H     303  4P7303      0.0624
     27  H28      167.8300  121.9220  183.2680 H     303  4P7303      0.0311
     28  H29      167.5690  120.4140  184.1610 H     303  4P7303      0.0311
     29  H27      166.3180  121.5450  185.8800 H     303  4P7303      0.0281
     30  H26      165.6760  122.1110  184.3260 H     303  4P7303      0.0281
     31  H24      167.3370  124.0380  184.4600 H     303  4P7303      0.0441
     32  H25      166.0480  124.0720  185.6760 H     303  4P7303      0.0441
     33  H20      172.4590  118.5990  181.9670 H     303  4P7303      0.1648
@<TRIPOS>BOND
     1    24     6    1
     2     6    18   ar
     3     6     3   ar
     4    33    18    1
     5    18     7   ar
     6    21     3    1
     7     3     9   ar
     8    27    13    1
     9     7     9   ar
    10     7    25    1
    11     9    12    1
    12    28    13    1
    13    13    14    1
    14    13    11    1
    15    30    14    1
    16    31    15    1
    17    12    11    2
    18    12    26    1
    19    14    15    1
    20    14    29    1
    21    11    10    1
    22    15    32    1
    23    15    17    1
    24    10    17    1
    25    10     8    1
    26    23     5    1
    27     8     5   ar
    28     8     2   ar
    29     5    16   ar
    30    20     2    1
    31     2     1   ar
    32    16     4   ar
    33     1     4   ar
    34     1    19    1
    35     4    22    1
