@<TRIPOS>MOLECULE
3WTN_N2Y_H301
 14 15 0 0 0
SMALL
GASTEIGER

@<TRIPOS>ATOM
      1  N2       165.8770  123.0370  186.8660 N.pl3 301  N2Y301     -0.0878
      2  N3       167.8800  122.3840  185.7310 N.ar  301  N2Y301     -0.2916
      3  C1       166.6520  123.1030  185.8470 C.ar  301  N2Y301      0.2382
      4  N4       166.4180  123.8800  184.6970 N.ar  301  N2Y301     -0.2094
      5  C2       167.5150  123.6980  183.7510 C.ar  301  N2Y301      0.1206
      6  C3       168.4820  122.7110  184.4260 C.ar  301  N2Y301      0.0993
      7  C4       171.8730  122.8080  189.0960 C.ar  301  N2Y301      0.1383
      8 CL1       173.2340  123.3800  190.0540 Cl    301  N2Y301     -0.0613
      9  N6       171.2440  123.6570  188.2570 N.ar  301  N2Y301     -0.2327
     10  C5       170.1960  123.2740  187.5020 C.ar  301  N2Y301      0.0974
     11  C6       169.6990  121.9300  187.5560 C.ar  301  N2Y301      0.0197
     12  C7       170.3550  121.0260  188.4380 C.ar  301  N2Y301      0.0016
     13  C8       171.4520  121.4550  189.2210 C.ar  301  N2Y301      0.0305
     14  C9       168.5000  121.4470  186.7080 C.3   301  N2Y301      0.1371
@<TRIPOS>BOND
     1     5     6   ar
     2     5     4   ar
     3     6     2   ar
     4     4     3   ar
     5     2     3   ar
     6     2    14    1
     7     3     1    1
     8    14    11    1
     9    10    11   ar
    10    10     9   ar
    11    11    12   ar
    12     9     7   ar
    13    12    13   ar
    14     7    13   ar
    15     7     8    1
