@<TRIPOS>MOLECULE
2XYT_TC9_F1206
 45 51 0 0 0
SMALL
GASTEIGER

@<TRIPOS>ATOM
      1 N         168.7020  116.6050  180.0650 N.4     1  UNL1        0.3813
      2 C         168.3440  115.5260  180.9340 C.3     1  UNL1        0.1438
      3 C         168.8350  115.6370  182.3450 C.3     1  UNL1        0.0890
      4 C         169.1310  117.0200  182.8350 C.ar    1  UNL1       -0.0117
      5 C         168.8370  118.1460  182.0200 C.ar    1  UNL1        0.0281
      6 C         168.2530  117.9380  180.6490 C.3     1  UNL1        0.1144
      7 C         169.7000  117.2160  184.1230 C.ar    1  UNL1        0.0359
      8 C         169.9890  118.5290  184.5920 C.ar    1  UNL1        0.1726
      9 C         169.6930  119.6530  183.7690 C.ar    1  UNL1        0.1789
     10 C         169.1200  119.4560  182.4810 C.ar    1  UNL1        0.0416
     11 O         169.9770  120.9660  184.2510 O.3     1  UNL1       -0.4472
     12 C         170.0320  121.8960  183.1730 C.ar    1  UNL1        0.1838
     13 C         171.2750  122.1900  182.5690 C.ar    1  UNL1        0.2298
     14 C         171.3400  123.0700  181.5160 C.ar    1  UNL1        0.0449
     15 C         170.1610  123.6780  181.0460 C.ar    1  UNL1       -0.0006
     16 C         168.9340  123.3950  181.6460 C.ar    1  UNL1       -0.0129
     17 C         168.8570  122.5020  182.7040 C.ar    1  UNL1        0.0368
     18 C         167.6640  124.0600  181.0460 C.3     1  UNL1        0.0864
     19 C         166.6380  124.7390  182.0040 C.3     1  UNL1        0.0890
     20 N         167.0440  125.9400  182.6960 N.4     1  UNL1        0.3056
     21 C         167.1330  127.1550  181.9120 C.3     1  UNL1        0.1138
     22 C         166.7190  127.1210  180.4580 C.3     1  UNL1        0.0874
     23 C         165.5920  126.1870  180.1880 C.ar    1  UNL1       -0.0088
     24 C         165.4910  125.0230  180.9920 C.ar    1  UNL1        0.0612
     25 C         164.6280  126.4560  179.1760 C.ar    1  UNL1        0.0363
     26 C         163.5860  125.5660  178.9710 C.ar    1  UNL1        0.1802
     27 C         163.4890  124.3780  179.7790 C.ar    1  UNL1        0.2632
     28 C         164.4730  124.1090  180.7780 C.ar    1  UNL1        0.1880
     29 O         164.3410  123.0160  181.6600 O.3     1  UNL1       -0.4503
     30 C         164.9650  121.8100  181.3290 C.ar    1  UNL1        0.1454
     31 C         165.3410  120.9590  182.3960 C.ar    1  UNL1        0.0372
     32 C         165.9120  119.7170  182.1340 C.ar    1  UNL1       -0.0009
     33 C         166.1100  119.3170  180.8300 C.ar    1  UNL1       -0.0159
     34 C         165.7200  120.1640  179.7470 C.ar    1  UNL1       -0.0009
     35 C         165.1460  121.3990  180.0010 C.ar    1  UNL1        0.0372
     36 C         166.7080  117.9540  180.5650 C.3     1  UNL1        0.0879
     37 O         170.5360  118.7300  185.8750 O.3     1  UNL1       -0.4684
     38 C         171.4150  117.7880  186.4590 C.3     1  UNL1        0.2526
     39 O         172.4320  121.5810  183.0180 O.3     1  UNL1       -0.2833
     40 O         162.6410  125.8240  177.9870 O.3     1  UNL1       -0.4681
     41 C         163.0290  126.2940  176.7600 C.3     1  UNL1        0.2526
     42 O         162.4460  123.4880  179.5720 O.3     1  UNL1       -0.2800
     43 C         168.5330  116.0250  178.7290 C.3     1  UNL1        0.2024
     44 C         168.3290  125.7210  183.3870 C.3     1  UNL1        0.1708
     45 C         166.0490  126.1680  183.7740 C.3     1  UNL1        0.1708
@<TRIPOS>UNITY_ATOM_ATTR
1 1
charge 1
20 1
charge 1
@<TRIPOS>BOND
     1     2     1    1
     2     3     2    1
     3     4     3    1
     4     5     4   ar
     5     6     5    1
     6     6     1    1
     7     7     4   ar
     8     8     7   ar
     9     9     8   ar
    10    10     5   ar
    11    10     9   ar
    12    11     9    1
    13    12    11    1
    14    13    12   ar
    15    14    13   ar
    16    15    14   ar
    17    16    15   ar
    18    17    16   ar
    19    17    12   ar
    20    18    16    1
    21    19    18    1
    22    20    19    1
    23    21    20    1
    24    22    21    1
    25    23    22    1
    26    24    19    1
    27    24    23   ar
    28    25    23   ar
    29    26    25   ar
    30    27    26   ar
    31    28    27   ar
    32    28    24   ar
    33    29    28    1
    34    30    29    1
    35    31    30   ar
    36    32    31   ar
    37    33    32   ar
    38    34    33   ar
    39    35    34   ar
    40    35    30   ar
    41    36    33    1
    42    36     6    1
    43    37     8    1
    44    38    37    1
    45    39    13    1
    46    40    26    1
    47    41    40    1
    48    42    27    1
    49    43     1    1
    50    20    44    1
    51    45    20    1
