@<TRIPOS>MOLECULE
2XYS_SY9_C1206
 25 31 0 0 0
SMALL
GASTEIGER

@<TRIPOS>ATOM
      1 C         167.5700  122.6580  185.2420 C.3     1  UNL1        0.0634
      2 C         166.4810  121.7240  184.6880 C.3     1  UNL1        0.0205
      3 C         165.7760  122.4100  183.5270 C.3     1  UNL1        0.0247
      4 C         166.7590  122.5560  182.3690 C.3     1  UNL1        0.0504
      5 C         167.9870  123.3670  182.7530 C.3     1  UNL1        0.0873
      6 N         169.0130  122.8470  181.8460 N.am    1  UNL1       -0.2601
      7 C         170.0410  122.2180  182.5470 C.ar    1  UNL1        0.0498
      8 C         171.1210  121.4810  182.0570 C.ar    1  UNL1        0.0146
      9 C         172.0030  120.8680  182.9390 C.ar    1  UNL1        0.0013
     10 C         171.7860  120.9720  184.3090 C.ar    1  UNL1       -0.0002
     11 C         170.6980  121.6840  184.8020 C.ar    1  UNL1       -0.0030
     12 C         169.8010  122.2800  183.9220 C.ar    1  UNL1       -0.0062
     13 C         168.5600  123.1530  184.1660 C.3     1  UNL1        0.0520
     14 C         169.0250  124.4810  184.7740 C.3     1  UNL1        0.0243
     15 C         167.7020  125.0670  185.2810 C.3     1  UNL1        0.0728
     16 N         166.9660  123.9030  185.8330 N.3     1  UNL1       -0.2702
     17 C         165.5420  124.0940  185.5060 C.3     1  UNL1        0.0946
     18 C         165.3380  123.7580  184.0300 C.2     1  UNL1       -0.0303
     19 C         164.7210  124.7500  183.2940 C.2     1  UNL1       -0.0015
     20 C         164.4880  124.6470  181.9260 C.3     1  UNL1        0.1677
     21 O         165.6150  124.4280  181.0460 O.3     1  UNL1       -0.3509
     22 C         166.1740  123.1190  181.0500 C.3     1  UNL1        0.1266
     23 C         167.3190  123.3310  180.0250 C.3     1  UNL1        0.1151
     24 C         168.6470  122.7490  180.5050 C.2     1  UNL1        0.2318
     25 O         169.5050  122.2000  179.6070 O.2     1  UNL1       -0.2744
@<TRIPOS>BOND
     1     1     2    1
     2     3     2    1
     3     4     3    1
     4     5     4    1
     5     5     6    1
     6     7     6    1
     7     8     7   ar
     8     9     8   ar
     9    10     9   ar
    10    11    10   ar
    11    12    11   ar
    12    12     7   ar
    13    13     5    1
    14    13     1    1
    15    13    12    1
    16    13    14    1
    17    15    14    1
    18    16    15    1
    19    16     1    1
    20    17    16    1
    21    18     3    1
    22    18    17    1
    23    19    18    2
    24    20    19    1
    25    21    20    1
    26    22    21    1
    27     4    22    1
    28    22    23    1
    29    24    23    1
    30    24     6   am
    31    25    24    2
