@<TRIPOS>MOLECULE
6M38_29E_A601
 21 23 0 0 0
SMALL
GASTEIGER

@<TRIPOS>ATOM
      1 C         131.0390  125.2040  135.7900 C.3     1  UNL1        0.1075
      2 N         129.8760  125.4070  134.9430 N.3     1  UNL1       -0.2164
      3 C         130.1570  126.4440  133.9670 C.3     1  UNL1        0.0929
      4 C         130.7610  127.6990  134.6110 C.3     1  UNL1        0.0675
      5 C         130.0640  128.9310  134.0160 C.3     1  UNL1        0.1955
      6 C         130.2000  130.1600  134.9330 C.ar    1  UNL1        0.0468
      7 S         131.4240  131.1220  135.0100 S.2     1  UNL1       -0.0873
      8 C         131.1040  132.2120  136.0700 C.ar    1  UNL1        0.0352
      9 C         129.7830  131.9490  136.6010 C.ar    1  UNL1        0.0073
     10 C         129.2080  130.6470  135.8810 C.ar    1  UNL1        0.0062
     11 O         130.5950  129.1970  132.7390 O.3     1  UNL1       -0.4742
     12 C         129.8520  130.1340  132.0150 C.ar    1  UNL1        0.1388
     13 C         130.6990  130.7600  131.0750 C.ar    1  UNL1        0.0340
     14 C         132.0570  130.4010  130.9740 C.ar    1  UNL1        0.0030
     15 C         132.8790  131.0250  130.0430 C.ar    1  UNL1        0.0001
     16 C         132.3740  132.0090  129.2000 C.ar    1  UNL1        0.0000
     17 C         131.0350  132.3650  129.2980 C.ar    1  UNL1        0.0001
     18 C         130.2000  131.7340  130.2420 C.ar    1  UNL1        0.0029
     19 C         128.8500  132.1080  130.3290 C.ar    1  UNL1        0.0002
     20 C         128.0250  131.4890  131.2580 C.ar    1  UNL1        0.0031
     21 C         128.5210  130.5040  132.1070 C.ar    1  UNL1        0.0369
@<TRIPOS>BOND
     1     2     1    1
     2     3     2    1
     3     4     3    1
     4     5     4    1
     5     6     5    1
     6     7     6   ar
     7     8     7   ar
     8     9     8   ar
     9    10     6   ar
    10    10     9   ar
    11    11     5    1
    12    12    11    1
    13    13    12   ar
    14    14    13   ar
    15    15    14   ar
    16    16    15   ar
    17    17    16   ar
    18    18    13   ar
    19    18    17   ar
    20    19    18   ar
    21    20    19   ar
    22    21    12   ar
    23    21    20   ar
