@<TRIPOS>MOLECULE
4XP4_COC_A706
 22 24 0 0 0
SMALL
GASTEIGER

@<TRIPOS>ATOM
      1 C         131.6740  132.0640  135.2780 C.3     1  UNL1        0.2556
      2 O         130.5110  131.2020  135.2700 O.3     1  UNL1       -0.4443
      3 C         130.8520  129.7950  135.1910 C.2     1  UNL1        0.3215
      4 O         132.0030  129.4480  135.4200 O.2     1  UNL1       -0.2499
      5 C         129.8200  128.7930  134.8200 C.3     1  UNL1        0.1535
      6 C         129.8510  127.6660  135.7710 C.3     1  UNL1        0.0716
      7 N         130.9120  126.9050  135.6420 N.3     1  UNL1       -0.2733
      8 C         131.0230  126.0340  136.8130 C.3     1  UNL1        0.0896
      9 C         128.7030  126.6790  135.3900 C.3     1  UNL1        0.0180
     10 C         129.3860  125.6710  134.5730 C.3     1  UNL1        0.0175
     11 C         130.8550  126.1620  134.5570 C.3     1  UNL1        0.0612
     12 C         131.0710  126.9490  133.2820 C.3     1  UNL1        0.0602
     13 C         130.1660  128.2860  133.2510 C.3     1  UNL1        0.1823
     14 O         130.8230  129.2010  132.6770 O.3     1  UNL1       -0.4485
     15 C         130.0160  130.1430  131.8620 C.2     1  UNL1        0.3411
     16 O         128.8210  130.2220  132.0200 O.2     1  UNL1       -0.2449
     17 C         130.7070  131.0020  130.8370 C.ar    1  UNL1        0.0756
     18 C         130.0130  131.9920  130.1740 C.ar    1  UNL1        0.0064
     19 C         130.6680  132.7610  129.2510 C.ar    1  UNL1        0.0002
     20 C         132.0150  132.5470  128.9860 C.ar    1  UNL1        0.0000
     21 C         132.6980  131.5690  129.6490 C.ar    1  UNL1        0.0002
     22 C         132.0450  130.7940  130.5790 C.ar    1  UNL1        0.0064
@<TRIPOS>BOND
     1     2     1    1
     2     3     2    1
     3     4     3    2
     4     5     3    1
     5     6     5    1
     6     7     6    1
     7     8     7    1
     8     6     9    1
     9    10     9    1
    10    11    10    1
    11    11     7    1
    12    12    11    1
    13    13     5    1
    14    13    12    1
    15    13    14    1
    16    15    14    1
    17    16    15    2
    18    17    15    1
    19    18    17   ar
    20    19    18   ar
    21    20    19   ar
    22    21    20   ar
    23    22    17   ar
    24    22    21   ar
