@<TRIPOS>MOLECULE
3U8J_09O_D211
 13 14 0 0 0
SMALL
GASTEIGER

@<TRIPOS>ATOM
      1 C         168.3820  124.2170  185.6100 C.3     1  UNL1        0.1096
      2 C         166.8490  124.2380  185.4270 C.3     1  UNL1        0.1100
      3 N         166.1520  123.2070  186.2230 N.3     1  UNL1       -0.2162
      4 C         166.0830  121.8640  185.6090 C.3     1  UNL1        0.0905
      5 C         167.3560  121.0490  185.8850 C.3     1  UNL1        0.0402
      6 C         168.5820  121.7190  185.2520 C.3     1  UNL1        0.0924
      7 N         168.9480  122.9180  186.0060 N.pl3   1  UNL1       -0.3048
      8 C         171.9700  122.7590  188.7860 C.ar    1  UNL1        0.0990
      9 N         171.7360  123.9310  188.1580 N.ar    1  UNL1       -0.2410
     10 C         170.7450  123.9750  187.2340 C.ar    1  UNL1        0.1133
     11 C         169.9340  122.8480  186.9170 C.ar    1  UNL1        0.0673
     12 C         170.1910  121.6300  187.5890 C.ar    1  UNL1        0.0177
     13 C         171.2260  121.5890  188.5420 C.ar    1  UNL1        0.0219
@<TRIPOS>BOND
     1     2     1    1
     2     3     2    1
     3     4     3    1
     4     5     4    1
     5     6     5    1
     6     7     6    1
     7     7     1    1
     8     9     8   ar
     9    10     9   ar
    10    11     7    1
    11    11    10   ar
    12    12    11   ar
    13    13    12   ar
    14    13     8   ar
