@<TRIPOS>MOLECULE
3U8M_09R_L211
 14 15 0 0 0
SMALL
GASTEIGER

@<TRIPOS>ATOM
      1 C         170.5520  124.2710  187.5500 C.ar    1  UNL1        0.1139
      2 C         169.9800  123.0770  187.0610 C.ar    1  UNL1        0.0674
      3 C         170.4910  121.8600  187.5930 C.ar    1  UNL1        0.0182
      4 C         171.5080  121.9280  188.5620 C.ar    1  UNL1        0.0273
      5 C         171.9870  123.1930  188.9690 C.ar    1  UNL1        0.1155
      6 N         171.5200  124.3380  188.4650 N.ar    1  UNL1       -0.2358
      7 BR        173.2390  123.3570  190.1400 Br      1  UNL1       -0.0280
      8 N         169.0200  123.1420  186.0890 N.pl3   1  UNL1       -0.3048
      9 C         168.6640  124.4170  185.4790 C.3     1  UNL1        0.1096
     10 C         167.1500  124.4970  185.2830 C.3     1  UNL1        0.1100
     11 N         166.4440  123.7420  186.3280 N.3     1  UNL1       -0.2162
     12 C         166.0320  122.3800  185.9440 C.3     1  UNL1        0.0905
     13 C         167.1700  121.3840  186.1360 C.3     1  UNL1        0.0402
     14 C         168.4630  121.9100  185.5190 C.3     1  UNL1        0.0924
@<TRIPOS>BOND
     1     2     1   ar
     2     3     2   ar
     3     4     3   ar
     4     5     4   ar
     5     6     5   ar
     6     6     1   ar
     7     7     5    1
     8     8     2    1
     9     9     8    1
    10    10     9    1
    11    11    10    1
    12    12    11    1
    13    13    12    1
    14    14    13    1
    15    14     8    1
