@<TRIPOS>MOLECULE
3U8N_09S_R211
 17 18 0 0 0
SMALL
GASTEIGER

@<TRIPOS>ATOM
      1 C         168.2230  123.9840  185.2960 C.3     1  UNL1        0.1096
      2 C         166.7250  124.1440  185.0790 C.3     1  UNL1        0.1100
      3 N         166.0510  123.5010  186.2250 N.3     1  UNL1       -0.2162
      4 C         165.6350  122.0930  185.9910 C.3     1  UNL1        0.0905
      5 C         166.7670  121.0720  186.1580 C.3     1  UNL1        0.0402
      6 C         168.0380  121.4370  185.3690 C.3     1  UNL1        0.0924
      7 N         168.6070  122.6870  185.8840 N.pl3   1  UNL1       -0.3047
      8 C         171.5760  122.9200  188.7520 C.ar    1  UNL1        0.1492
      9 N         171.2720  123.9810  187.9820 N.ar    1  UNL1       -0.2328
     10 C         170.3140  123.8750  187.0590 C.ar    1  UNL1        0.1141
     11 C         169.5750  122.6960  186.8330 C.ar    1  UNL1        0.0704
     12 C         169.8900  121.5790  187.6410 C.ar    1  UNL1        0.0551
     13 C         170.9110  121.6670  188.6300 C.ar    1  UNL1        0.1636
     14 BR        172.8500  123.2100  189.8960 Br      1  UNL1       -0.0248
     15 O         171.2630  120.6070  189.4520 O.3     1  UNL1       -0.4734
     16 C         170.8050  119.3310  189.0630 C.3     1  UNL1        0.2056
     17 C         171.0800  118.2430  190.1000 C.3     1  UNL1        0.0512
@<TRIPOS>BOND
     1     2     1    1
     2     3     2    1
     3     4     3    1
     4     5     4    1
     5     6     5    1
     6     7     1    1
     7     7     6    1
     8     9     8   ar
     9    10     9   ar
    10    11     7    1
    11    11    10   ar
    12    12    11   ar
    13    13    12   ar
    14    13     8   ar
    15    14     8    1
    16    15    13    1
    17    16    15    1
    18    17    16    1
