@<TRIPOS>MOLECULE
4FRR_0VC_F301
 19 21 0 0 0
SMALL
GASTEIGER

@<TRIPOS>ATOM
      1 C         174.9640  116.0150  186.4120 C.3     1  UNL1        0.1741
      2 O         173.8300  116.2200  187.2610 O.3     1  UNL1       -0.3511
      3 C         173.6750  117.5840  187.6840 C.3     1  UNL1        0.1423
      4 C         173.0460  117.6810  189.0790 C.3     1  UNL1        0.0324
      5 C         171.9410  118.7520  189.0640 C.3     1  UNL1        0.0069
      6 C         172.3050  120.0310  189.8320 C.3     1  UNL1        0.0241
      7 C         171.3380  119.0190  190.4450 C.3     1  UNL1        0.0048
      8 C         171.6710  121.2520  189.2130 C.ar    1  UNL1       -0.0003
      9 C         172.2230  122.4890  189.5140 C.ar    1  UNL1        0.0948
     10 N         171.7800  123.6410  189.0010 N.ar    1  UNL1       -0.2395
     11 C         170.7400  123.6830  188.1520 C.ar    1  UNL1        0.1356
     12 C         170.1300  122.4850  187.8120 C.ar    1  UNL1        0.1574
     13 C         170.5810  121.2530  188.3160 C.ar    1  UNL1        0.0358
     14 O         169.0910  122.5770  186.9670 O.3     1  UNL1       -0.4724
     15 C         168.0790  121.5690  186.8910 C.3     1  UNL1        0.2227
     16 C         166.9580  122.1610  186.0310 C.3     1  UNL1        0.1178
     17 C         167.4150  122.4390  184.5920 C.3     1  UNL1        0.0400
     18 C         167.0850  123.9100  184.7980 C.3     1  UNL1        0.0903
     19 N         166.7140  123.5940  186.1690 N.3     1  UNL1       -0.2156
@<TRIPOS>BOND
     1     2     1    1
     2     3     2    1
     3     4     3    1
     4     5     4    1
     5     6     5    1
     6     7     5    1
     7     7     6    1
     8     6     8    1
     9     9     8   ar
    10    10     9   ar
    11    11    10   ar
    12    12    11   ar
    13    13    12   ar
    14    13     8   ar
    15    14    12    1
    16    15    14    1
    17    16    15    1
    18    17    16    1
    19    18    17    1
    20    19    18    1
    21    19    16    1
