@<TRIPOS>MOLECULE
5AIN_QMR_A1207
 16 20 0 0 0
SMALL
GASTEIGER

@<TRIPOS>ATOM
      1  C01      166.7670  122.1490  185.6620 C.3   1207  QMR1207     0.0890
      2  N02      166.7180  123.5530  186.0480 N.3   1207  QMR1207    -0.2177
      3  C03      167.5670  124.4790  185.3180 C.3   1207  QMR1207     0.0927
      4  C04      168.9110  123.9370  184.9260 C.3   1207  QMR1207     0.0361
      5  C05      168.8390  122.6190  184.3720 C.3   1207  QMR1207     0.0107
      6  C06      168.0960  121.6530  185.2310 C.3   1207  QMR1207     0.0219
      7  C07      169.0190  122.1180  186.1510 C.3   1207  QMR1207     0.0226
      8  C08      169.4670  121.2960  187.2190 C.3   1207  QMR1207     0.0511
      9  C09      170.3870  121.8440  188.1780 C.ar  1207  QMR1207     0.0769
     10  N10      170.8020  121.0600  189.2600 N.ar  1207  QMR1207    -0.2450
     11  C11      171.6930  121.5850  190.1340 C.ar  1207  QMR1207     0.1191
     12  C12      172.1590  122.8860  190.0200 C.ar  1207  QMR1207     0.1194
     13  N13      171.7020  123.6590  189.0070 N.ar  1207  QMR1207    -0.2410
     14  C14      170.8220  123.1190  188.0630 C.ar  1207  QMR1207     0.0942
     15  C15      170.3700  123.9290  186.9900 C.2   1207  QMR1207     0.0118
     16  C16      169.4580  123.3670  186.0880 C.2   1207  QMR1207    -0.0418
@<TRIPOS>BOND
     1     5     4    1
     2     5     6    1
     3     5     7    1
     4     4     3    1
     5     4    16    1
     6     6     1    1
     7     6     7    1
     8     3     2    1
     9     1     2    1
    10    16     7    1
    11    16    15    2
    12     7     8    1
    13    15    14    1
    14     8     9    1
    15    14     9   ar
    16    14    13   ar
    17     9    10   ar
    18    13    12   ar
    19    10    11   ar
    20    12    11   ar
