@<TRIPOS>MOLECULE
5O87_NCT_B601
 12 13 0 0 0
SMALL
GASTEIGER

@<TRIPOS>ATOM
      1 N         171.2370  124.7000  187.4360 N.ar    1  UNL1       -0.2426
      2 C         170.5280  124.5210  186.2920 C.ar    1  UNL1        0.0959
      3 C         169.9390  123.2920  185.9550 C.ar    1  UNL1        0.0114
      4 C         170.0930  122.2380  186.8640 C.ar    1  UNL1        0.0002
      5 C         170.8320  122.4340  188.0370 C.ar    1  UNL1        0.0204
      6 C         171.4130  123.6810  188.3010 C.ar    1  UNL1        0.0989
      7 N         167.8840  123.8410  184.6910 N.3     1  UNL1       -0.2691
      8 C         169.1640  123.0890  184.6840 C.3     1  UNL1        0.0817
      9 C         169.9000  123.5250  183.4000 C.3     1  UNL1        0.0220
     10 C         168.8960  124.2770  182.5430 C.3     1  UNL1        0.0191
     11 C         167.8630  124.7630  183.5310 C.3     1  UNL1        0.0724
     12 C         166.7060  122.9330  184.7290 C.3     1  UNL1        0.0899
@<TRIPOS>BOND
     1     2     1   ar
     2     3     2   ar
     3     4     3   ar
     4     5     4   ar
     5     6     5   ar
     6     6     1   ar
     7     8     7    1
     8     8     3    1
     9     9     8    1
    10    10     9    1
    11    11    10    1
    12    11     7    1
    13    12     7    1
