@<TRIPOS>MOLECULE
8ST4_ACH_D704
 26 25 0 0 0
SMALL
GASTEIGER

@<TRIPOS>ATOM
      1 N         167.3160  123.1040  185.3160 N.4     1  UNL1        0.2393
      2 C         168.7070  123.6840  185.1340 C.3     1  UNL1        0.0042
      3 C         169.4840  124.0120  186.3910 C.3     1  UNL1        0.1320
      4 O         169.7590  122.8260  187.1820 O.3     1  UNL1       -0.4594
      5 C         170.5920  122.9820  188.2130 C.2     1  UNL1        0.3041
      6 O         171.1040  124.0280  188.4750 O.2     1  UNL1       -0.2512
      7 C         170.7930  121.7070  188.9540 C.3     1  UNL1        0.0332
      8 C         166.7470  122.8350  183.9600 C.3     1  UNL1       -0.0417
      9 C         167.3710  121.8190  186.0760 C.3     1  UNL1       -0.0417
     10 C         166.4080  124.0500  186.0350 C.3     1  UNL1       -0.0417
     11 H         168.5900  124.4980  184.6030 H       1  UNL1        0.0849
     12 H         169.2020  123.0270  184.6030 H       1  UNL1        0.0849
     13 H         170.3230  124.4640  186.1660 H       1  UNL1        0.0752
     14 H         168.9550  124.6220  186.9420 H       1  UNL1        0.0752
     15 H         170.4570  121.8070  189.8680 H       1  UNL1        0.0342
     16 H         171.7470  121.4920  188.9910 H       1  UNL1        0.0342
     17 H         170.2940  120.9880  188.5160 H       1  UNL1        0.0342
     18 H         166.8080  123.6560  183.4300 H       1  UNL1        0.0778
     19 H         165.8120  122.5650  184.0660 H       1  UNL1        0.0778
     20 H         167.2540  122.1110  183.5390 H       1  UNL1        0.0778
     21 H         167.4330  122.0260  187.0300 H       1  UNL1        0.0778
     22 H         168.1580  121.3160  185.7830 H       1  UNL1        0.0778
     23 H         166.5540  121.3130  185.8870 H       1  UNL1        0.0778
     24 H         166.0250  124.6720  185.3830 H       1  UNL1        0.0778
     25 H         166.9120  124.5530  186.7030 H       1  UNL1        0.0778
     26 H         165.7060  123.5260  186.4710 H       1  UNL1        0.0778
@<TRIPOS>UNITY_ATOM_ATTR
1 1
charge 1
@<TRIPOS>BOND
     1     1     2    1
     2     3     2    1
     3     4     3    1
     4     5     4    1
     5     6     5    2
     6     7     5    1
     7     8     1    1
     8     9     1    1
     9    10     1    1
    10     2    11    1
    11    12     2    1
    12     3    13    1
    13    14     3    1
    14     7    15    1
    15    16     7    1
    16    17     7    1
    17     8    18    1
    18    19     8    1
    19    20     8    1
    20     9    21    1
    21    22     9    1
    22    23     9    1
    23    10    24    1
    24    25    10    1
    25    26    10    1
