@<TRIPOS>MOLECULE
4BDT_HUW_A701
 22 25 0 0 0
SMALL
GASTEIGER

@<TRIPOS>ATOM
      1 O          89.8200   84.4710  -11.3220 O.3     1  UNL1       -0.2201
      2 CL         87.3220   76.6080   -3.8630 Cl      1  UNL1       -0.0822
      3 C          88.5110   77.7080   -4.4400 C.ar    1  UNL1        0.0592
      4 N          89.9330   78.6720   -7.6070 N.ar    1  UNL1       -0.2499
      5 C          89.7170   78.6430   -6.2830 C.ar    1  UNL1        0.0830
      6 C          90.8800   79.5230   -8.1680 C.ar    1  UNL1        0.0566
      7 N          92.1450   81.1490   -5.2350 N.pl3   1  UNL1       -0.1283
      8 C          91.4220   80.3370   -6.0610 C.ar    1  UNL1        0.0876
      9 C          88.7550   77.7670   -5.8030 C.ar    1  UNL1        0.0305
     10 C          89.2250   78.5190   -3.5650 C.ar    1  UNL1        0.0115
     11 C          90.4490   79.4710   -5.4330 C.ar    1  UNL1        0.0342
     12 C          90.9780   79.4310   -9.6840 C.3     1  UNL1        0.0498
     13 C          91.6320   80.3520   -7.4150 C.ar    1  UNL1        0.0082
     14 C          91.6380   80.6860  -10.2690 C.3     1  UNL1        0.0276
     15 C          90.7140   81.8770  -10.0610 C.2     1  UNL1       -0.0344
     16 C          92.9670   80.8630   -9.5040 C.3     1  UNL1        0.0095
     17 C          90.8830   82.7770   -9.0950 C.2     1  UNL1       -0.0456
     18 C          92.0280   82.6990   -8.0960 C.3     1  UNL1        0.0262
     19 C          89.9360   83.9460   -8.9380 C.3     1  UNL1        0.0572
     20 C          92.6550   81.2870   -8.0530 C.3     1  UNL1        0.0292
     21 C          89.0430   84.0660  -10.1890 C.3     1  UNL1        0.1864
     22 C          90.1950   79.4010   -4.0520 C.ar    1  UNL1        0.0037
@<TRIPOS>BOND
     1     3     2    1
     2     5     4   ar
     3     6     4   ar
     4     8     7    1
     5     9     5   ar
     6     9     3   ar
     7    10     3   ar
     8    11     8   ar
     9    11     5   ar
    10    12     6    1
    11    13     8   ar
    12    13     6   ar
    13    14    12    1
    14    15    14    1
    15    16    14    1
    16    17    15    2
    17    18    17    1
    18    19    17    1
    19    20    13    1
    20    20    18    1
    21    20    16    1
    22    21     1    1
    23    21    19    1
    24    22    11   ar
    25    22    10   ar
