@<TRIPOS>MOLECULE
5HF8_DEP_B606
 8 7 0 0 0
SMALL
GASTEIGER

@<TRIPOS>ATOM
      1 C          86.7180   84.5860  -11.0660 C.3     1  UNL1        0.1520
      2 C          85.7880   84.2310  -12.2130 C.3     1  UNL1        0.0352
      3 C          89.7940   82.7550   -9.3850 C.3     1  UNL1        0.1520
      4 C          89.0740   83.1210   -8.1030 C.3     1  UNL1        0.0352
      5 O          88.0130   84.7080  -11.5790 O.3     1  UNL1       -0.2864
      6 O          88.8330   82.6890  -10.4140 O.3     1  UNL1       -0.2864
      7 O          90.3780   83.8250  -12.1610 O.2     1  UNL1       -0.2453
      8 P          88.9910   83.4370  -11.8240 P.3     1  UNL1        0.4438
@<TRIPOS>BOND
     1     2     1    1
     2     4     3    1
     3     5     1    1
     4     6     3    1
     5     8     7    2
     6     8     5    1
     7     8     6    1
