@<TRIPOS>MOLECULE
5HF8_EFS_B605
 6 5 0 0 0
SMALL
GASTEIGER

@<TRIPOS>ATOM
      1  C12       85.7320   84.4600  -12.2200 C.3   605  EFS605      0.0352
      2  C11       86.7390   84.8310  -11.1270 C.3   605  EFS605      0.1531
      3  O2        87.9350   84.9250  -11.6560 O.3   605  EFS605     -0.2749
      4  P         88.9870   83.4480  -11.8340 P.3   605  EFS605      0.5410
      5  O4        88.9280   82.8310  -10.4470 O.2   605  EFS605     -0.2272
      6  O1        90.3070   84.0770  -12.2460 O.2   605  EFS605     -0.2272
@<TRIPOS>BOND
     1     6     4    2
     2     1     2    1
     3     4     3    1
     4     4     5    2
     5     3     2    1
