@<TRIPOS>MOLECULE
5HF9_HI6_A607
 21 22 0 0 0
SMALL
GASTEIGER

@<TRIPOS>ATOM
      1 O          94.4890   93.7430   -2.1460 O.2     1  UNL1       -0.2667
      2 C          93.5910   93.3450   -1.4250 C.2     1  UNL1        0.2846
      3 N          93.3310   93.9530   -0.1860 N.am    1  UNL1       -0.0837
      4 C          92.6970   92.1610   -1.9230 C.ar    1  UNL1        0.0689
      5 C          91.6320   91.6350   -1.1570 C.ar    1  UNL1        0.0805
      6 C          90.8280   90.5780   -1.6240 C.ar    1  UNL1        0.2924
      7 N          91.0380   89.9900   -2.8700 N.ar    1  UNL1       -0.1308
      8 C          92.0690   90.4820   -3.6240 C.ar    1  UNL1        0.2924
      9 C          92.8820   91.5290   -3.1640 C.ar    1  UNL1        0.0805
     10 C          90.1510   88.8240   -3.3610 C.3     1  UNL1        0.4916
     11 O          90.2260   87.7180   -2.4430 O.3     1  UNL1       -0.2192
     12 C          89.0910   86.8400   -2.4450 C.3     1  UNL1        0.4914
     13 N          89.1890   85.7190   -3.5140 N.ar    1  UNL1       -0.1344
     14 C          88.2210   85.5770   -4.5420 C.ar    1  UNL1        0.2513
     15 C          87.1130   86.4330   -4.6580 C.2     1  UNL1        0.2139
     16 N          87.1120   87.8580   -4.7790 N.2     1  UNL1       -0.0214
     17 O          86.1780   88.5570   -4.8800 O.2     1  UNL1       -0.1429
     18 C          88.4040   84.5040   -5.4930 C.ar    1  UNL1        0.0713
     19 C          89.4670   83.6380   -5.4400 C.ar    1  UNL1        0.0125
     20 C          90.4150   83.7910   -4.3990 C.ar    1  UNL1        0.0759
     21 C          90.2560   84.8040   -3.4870 C.ar    1  UNL1        0.2921
@<TRIPOS>UNITY_ATOM_ATTR
7 1
charge 1
13 1
charge 1
@<TRIPOS>BOND
     1     2     1    2
     2     3     2   am
     3     4     2    1
     4     5     4   ar
     5     6     5   ar
     6     7     6   ar
     7     8     7   ar
     8     9     8   ar
     9     9     4   ar
    10    10     7    1
    11    11    10    1
    12    12    11    1
    13    13    12    1
    14    14    13   ar
    15    15    14    1
    16    16    15    2
    17    17    16    1
    18    18    14   ar
    19    19    18   ar
    20    20    19   ar
    21    21    20   ar
    22    21    13   ar
