@<TRIPOS>MOLECULE
5HF9_DEP_A604
 8 7 0 0 0
SMALL
GASTEIGER

@<TRIPOS>ATOM
      1 C          86.7600   85.3890  -11.9520 C.3     1  UNL1        0.1520
      2 C          85.9790   84.4160  -12.8220 C.3     1  UNL1        0.0352
      3 C          89.4840   82.8630   -9.8710 C.3     1  UNL1        0.1520
      4 C          90.2220   83.8900   -9.0310 C.3     1  UNL1        0.0352
      5 O          88.0940   85.3530  -12.3420 O.3     1  UNL1       -0.2864
      6 O          88.5950   83.6270  -10.6860 O.3     1  UNL1       -0.2864
      7 O          90.4480   84.3400  -12.3200 O.2     1  UNL1       -0.2453
      8 P          88.9940   84.0680  -12.1550 P.3     1  UNL1        0.4438
@<TRIPOS>BOND
     1     2     1    1
     2     4     3    1
     3     5     1    1
     4     6     3    1
     5     8     7    2
     6     8     5    1
     7     8     6    1
