@<TRIPOS>MOLECULE
6CQT_VX_A607
 6 5 0 0 0
SMALL
GASTEIGER

@<TRIPOS>ATOM
      1  P1        88.9670   83.9000  -12.0270 P.3   607  VX607       0.2205
      2  O1        90.4030   84.3090  -12.2590 O.3   607  VX607      -0.1774
      3  O2        88.8200   83.2380  -10.5250 O.3   607  VX607      -0.3173
      4  C1        87.8680   85.3960  -12.1550 C.3   607  VX607       0.0904
      5  C2        89.8770   83.3950   -9.6210 C.3   607  VX607       0.1487
      6  C3        89.6850   84.6880   -8.8330 C.3   607  VX607       0.0351
@<TRIPOS>BOND
     1     2     1    1
     2     4     1    1
     3     1     3    1
     4     3     5    1
     5     5     6    1
