@<TRIPOS>MOLECULE
6CQU_HI6_A601
 21 22 0 0 0
SMALL
GASTEIGER

@<TRIPOS>ATOM
      1 O          93.9180   93.5390   -0.8500 O.2     1  UNL1       -0.2667
      2 C          93.8970   93.0310   -1.9210 C.2     1  UNL1        0.2846
      3 N          94.8230   93.4630   -2.9520 N.am    1  UNL1       -0.0837
      4 C          92.8960   91.9170   -2.2230 C.ar    1  UNL1        0.0689
      5 C          91.8920   91.6330   -1.3540 C.ar    1  UNL1        0.0805
      6 C          90.9880   90.6220   -1.6460 C.ar    1  UNL1        0.2924
      7 N          91.1140   89.9150   -2.7930 N.ar    1  UNL1       -0.1308
      8 C          92.1120   90.2010   -3.6570 C.ar    1  UNL1        0.2924
      9 C          93.0170   91.2080   -3.3710 C.ar    1  UNL1        0.0805
     10 C          90.1810   88.8510   -3.1220 C.3     1  UNL1        0.4916
     11 O          89.8140   88.1070   -1.9880 O.3     1  UNL1       -0.2192
     12 C          90.2330   86.7650   -1.9710 C.3     1  UNL1        0.4914
     13 N          89.5070   85.9330   -2.9260 N.ar    1  UNL1       -0.1344
     14 C          90.1300   84.8720   -3.4990 C.ar    1  UNL1        0.2513
     15 C          91.5850   84.5470   -3.1510 C.2     1  UNL1        0.2139
     16 N          92.5260   85.2180   -3.6290 N.2     1  UNL1       -0.0214
     17 O          93.8560   84.9120   -3.3020 O.2     1  UNL1       -0.1429
     18 C          89.4500   84.0730   -4.4060 C.ar    1  UNL1        0.0713
     19 C          88.1600   84.3480   -4.7220 C.ar    1  UNL1        0.0125
     20 C          87.5350   85.4040   -4.1500 C.ar    1  UNL1        0.0759
     21 C          88.2140   86.1990   -3.2410 C.ar    1  UNL1        0.2921
@<TRIPOS>UNITY_ATOM_ATTR
7 1
charge 1
13 1
charge 1
@<TRIPOS>BOND
     1     2     1    2
     2     3     2   am
     3     4     2    1
     4     5     4   ar
     5     6     5   ar
     6     7     6   ar
     7     8     7   ar
     8     9     8   ar
     9     9     4   ar
    10    10     7    1
    11    11    10    1
    12    12    11    1
    13    13    12    1
    14    14    13   ar
    15    15    14    1
    16    16    15    2
    17    17    16    1
    18    18    14   ar
    19    19    18   ar
    20    20    19   ar
    21    21    20   ar
    22    21    13   ar
