@<TRIPOS>MOLECULE
6CQV_VX_A607
 6 5 0 0 0
SMALL
GASTEIGER

@<TRIPOS>ATOM
      1  P1        89.0120   83.4170  -11.8030 P.3   607  VX607       0.2205
      2  O1        90.1550   84.1320  -12.4840 O.3   607  VX607      -0.1774
      3  O2        87.8950   84.5210  -11.3020 O.3   607  VX607      -0.3173
      4  C1        89.6570   82.4770  -10.3320 C.3   607  VX607       0.0904
      5  C2        87.0270   85.0700  -12.2530 C.3   607  VX607       0.1487
      6  C3        85.5880   84.6970  -11.9030 C.3   607  VX607       0.0351
@<TRIPOS>BOND
     1     2     1    1
     2     5     6    1
     3     5     3    1
     4     1     3    1
     5     1     4    1
