@<TRIPOS>MOLECULE
6CQW_HI6_B606
 21 22 0 0 0
SMALL
GASTEIGER

@<TRIPOS>ATOM
      1 O          93.6510   93.2460   -0.6290 O.2     1  UNL1       -0.2667
      2 C          93.7220   92.7780   -1.7360 C.2     1  UNL1        0.2846
      3 N          94.6510   93.1570   -2.5940 N.am    1  UNL1       -0.0837
      4 C          92.7240   91.7640   -2.1280 C.ar    1  UNL1        0.0689
      5 C          91.7440   91.4290   -1.2410 C.ar    1  UNL1        0.0805
      6 C          90.8210   90.4850   -1.6170 C.ar    1  UNL1        0.2924
      7 N          90.8650   89.9180   -2.8120 N.ar    1  UNL1       -0.1308
      8 C          91.8020   90.2300   -3.6870 C.ar    1  UNL1        0.2924
      9 C          92.7580   91.1650   -3.3580 C.ar    1  UNL1        0.0805
     10 C          89.8510   88.9400   -3.1430 C.3     1  UNL1        0.4916
     11 O          90.3620   87.6940   -2.7610 O.3     1  UNL1       -0.2192
     12 C          89.3810   86.8410   -2.2390 C.3     1  UNL1        0.4914
     13 N          89.0420   85.8990   -3.2770 N.ar    1  UNL1       -0.1344
     14 C          87.9970   86.1700   -4.1360 C.ar    1  UNL1        0.2513
     15 C          87.2300   87.4040   -4.0190 C.2     1  UNL1        0.2139
     16 N          86.6320   87.7940   -5.0340 N.2     1  UNL1       -0.0214
     17 O          85.8960   88.9570   -4.9740 O.2     1  UNL1       -0.1429
     18 C          87.6890   85.2800   -5.1170 C.ar    1  UNL1        0.0713
     19 C          88.4150   84.1220   -5.2370 C.ar    1  UNL1        0.0125
     20 C          89.4460   83.8690   -4.3710 C.ar    1  UNL1        0.0759
     21 C          89.7330   84.7880   -3.3970 C.ar    1  UNL1        0.2921
@<TRIPOS>UNITY_ATOM_ATTR
7 1
charge 1
13 1
charge 1
@<TRIPOS>BOND
     1     2     1    2
     2     3     2   am
     3     4     2    1
     4     5     4   ar
     5     6     5   ar
     6     7     6   ar
     7     8     7   ar
     8     9     8   ar
     9     9     4   ar
    10    10     7    1
    11    11    10    1
    12    12    11    1
    13    13    12    1
    14    14    13   ar
    15    15    14    1
    16    16    15    2
    17    17    16    1
    18    18    14   ar
    19    19    18   ar
    20    20    19   ar
    21    21    20   ar
    22    21    13   ar
