@<TRIPOS>MOLECULE
6CQY_HI6_B605
 21 22 0 0 0
SMALL
GASTEIGER

@<TRIPOS>ATOM
      1 O          93.6890   93.4590   -0.5660 O.2     1  UNL1       -0.2667
      2 C          93.8020   92.8760   -1.5890 C.2     1  UNL1        0.2846
      3 N          94.8980   93.1780   -2.4880 N.am    1  UNL1       -0.0837
      4 C          92.7970   91.7970   -1.9740 C.ar    1  UNL1        0.0689
      5 C          91.7750   91.4790   -1.1420 C.ar    1  UNL1        0.0805
      6 C          90.8710   90.4970   -1.5120 C.ar    1  UNL1        0.2924
      7 N          91.0230   89.8650   -2.6960 N.ar    1  UNL1       -0.1308
      8 C          92.0420   90.1780   -3.5210 C.ar    1  UNL1        0.2924
      9 C          92.9450   91.1560   -3.1560 C.ar    1  UNL1        0.0805
     10 C          90.0930   88.8370   -3.0980 C.3     1  UNL1        0.4916
     11 O          90.3690   87.6790   -2.3730 O.3     1  UNL1       -0.2192
     12 C          89.2200   86.9280   -2.1440 C.3     1  UNL1        0.4914
     13 N          89.0600   85.9670   -3.2150 N.ar    1  UNL1       -0.1344
     14 C          88.1010   86.1490   -4.1510 C.ar    1  UNL1        0.2513
     15 C          87.1850   87.3690   -4.0730 C.2     1  UNL1        0.2139
     16 N          86.4100   87.6460   -5.0120 N.2     1  UNL1       -0.0214
     17 O          85.5810   88.7740   -4.9090 O.2     1  UNL1       -0.1429
     18 C          87.9520   85.2310   -5.1760 C.ar    1  UNL1        0.0713
     19 C          88.7710   84.1550   -5.2340 C.ar    1  UNL1        0.0125
     20 C          89.7270   83.9750   -4.2910 C.ar    1  UNL1        0.0759
     21 C          89.8750   84.8930   -3.2690 C.ar    1  UNL1        0.2921
@<TRIPOS>UNITY_ATOM_ATTR
7 1
charge 1
13 1
charge 1
@<TRIPOS>BOND
     1     2     1    2
     2     3     2   am
     3     4     2    1
     4     5     4   ar
     5     6     5   ar
     6     7     6   ar
     7     8     7   ar
     8     9     8   ar
     9     9     4   ar
    10    10     7    1
    11    11    10    1
    12    12    11    1
    13    13    12    1
    14    14    13   ar
    15    15    14    1
    16    16    15    2
    17    17    16    1
    18    18    14   ar
    19    19    18   ar
    20    20    19   ar
    21    21    20   ar
    22    21    13   ar
