@<TRIPOS>MOLECULE
6CQY_HI6_B605
 21 22 0 0 0
SMALL
GASTEIGER

@<TRIPOS>ATOM
      1 O          93.6620   93.4390   -0.5240 O.2     1  UNL1       -0.2667
      2 C          93.7770   92.8590   -1.5490 C.2     1  UNL1        0.2846
      3 N          94.8730   93.1690   -2.4460 N.am    1  UNL1       -0.0837
      4 C          92.7760   91.7790   -1.9380 C.ar    1  UNL1        0.0689
      5 C          91.7530   91.4550   -1.1080 C.ar    1  UNL1        0.0805
      6 C          90.8530   90.4720   -1.4820 C.ar    1  UNL1        0.2924
      7 N          91.0080   89.8440   -2.6680 N.ar    1  UNL1       -0.1308
      8 C          92.0270   90.1630   -3.4910 C.ar    1  UNL1        0.2924
      9 C          92.9270   91.1430   -3.1220 C.ar    1  UNL1        0.0805
     10 C          90.0820   88.8140   -3.0730 C.3     1  UNL1        0.4916
     11 O          90.3610   87.6550   -2.3520 O.3     1  UNL1       -0.2192
     12 C          89.2140   86.8990   -2.1270 C.3     1  UNL1        0.4914
     13 N          89.0580   85.9420   -3.2010 N.ar    1  UNL1       -0.1344
     14 C          88.0990   86.1240   -4.1380 C.ar    1  UNL1        0.2513
     15 C          87.1790   87.3410   -4.0570 C.2     1  UNL1        0.2139
     16 N          86.4040   87.6190   -4.9950 N.2     1  UNL1       -0.0214
     17 O          85.5720   88.7440   -4.8890 O.2     1  UNL1       -0.1429
     18 C          87.9540   85.2090   -5.1660 C.ar    1  UNL1        0.0713
     19 C          88.7760   84.1350   -5.2270 C.ar    1  UNL1        0.0125
     20 C          89.7320   83.9550   -4.2830 C.ar    1  UNL1        0.0759
     21 C          89.8760   84.8700   -3.2590 C.ar    1  UNL1        0.2921
@<TRIPOS>UNITY_ATOM_ATTR
7 1
charge 1
13 1
charge 1
@<TRIPOS>BOND
     1     2     1    2
     2     3     2   am
     3     4     2    1
     4     5     4   ar
     5     6     5   ar
     6     7     6   ar
     7     8     7   ar
     8     9     8   ar
     9     9     4   ar
    10    10     7    1
    11    11    10    1
    12    12    11    1
    13    13    12    1
    14    14    13   ar
    15    15    14    1
    16    16    15    2
    17    17    16    1
    18    18    14   ar
    19    19    18   ar
    20    20    19   ar
    21    21    20   ar
    22    21    13   ar
