@<TRIPOS>MOLECULE
6F25_CVZ_A613
 45 47 0 0 0
SMALL
GASTEIGER

@<TRIPOS>ATOM
      1 C          90.2140   79.7050   -4.1980 C.3     1  UNL1        0.0188
      2 C          91.2970   80.7300   -4.4990 C.3     1  UNL1        0.0724
      3 C          90.1580   82.9730   -4.7170 C.3     1  UNL1        0.0724
      4 C          88.6030   82.9990   -4.6840 C.3     1  UNL1        0.0174
      5 C          87.9620   84.3550   -5.0640 C.3     1  UNL1        0.0034
      6 C          88.1050   85.4660   -3.9920 C.3     1  UNL1        0.0247
      7 C          88.4160   86.9350   -4.4440 C.3     1  UNL1        0.1102
      8 C          86.6880   88.6000   -3.7000 C.ar    1  UNL1        0.0464
      9 C          85.8530   88.1480   -4.8800 C.3     1  UNL1        0.0503
     10 C          86.2710   89.5600   -2.8330 C.ar    1  UNL1        0.0741
     11 C          87.0410   90.0400   -1.6710 C.ar    1  UNL1        0.2693
     12 C          89.1920   89.9200   -0.2140 C.2     1  UNL1        0.0828
     13 C          88.6950   89.4790    1.2220 C.2     1  UNL1       -0.0069
     14 C          89.3880   90.0890    2.4920 C.3     1  UNL1        0.0290
     15 C          89.3840   91.6690    2.5980 C.3     1  UNL1        0.0221
     16 C          88.4110   92.3050    3.6480 C.3     1  UNL1        0.0727
     17 C          88.1550   93.0030    6.0700 C.3     1  UNL1        0.0724
     18 C          87.0610   91.9160    5.9970 C.3     1  UNL1        0.0188
     19 C          89.4620   94.4450    4.5640 C.3     1  UNL1        0.1054
     20 C          90.8560   94.9170    5.0550 C.ar    1  UNL1        0.0632
     21 C          92.0880   94.5000    4.5020 C.ar    1  UNL1        0.2873
     22 C          93.3360   94.9460    4.9650 C.ar    1  UNL1        0.0750
     23 C          93.4050   95.8470    6.0170 C.ar    1  UNL1        0.0063
     24 C          92.2180   96.2880    6.5920 C.ar    1  UNL1        0.0001
     25 C          90.9850   95.8310    6.1160 C.ar    1  UNL1        0.0032
     26 C          88.7530   88.4440   -2.3500 C.ar    1  UNL1        0.3374
     27 C          91.8020   82.2200   -6.4410 C.3     1  UNL1        0.1054
     28 C          91.5570   81.8020   -7.8890 C.ar    1  UNL1        0.0632
     29 C          90.7760   82.4830   -8.8640 C.ar    1  UNL1        0.2873
     30 C          90.6270   81.9880  -10.1720 C.ar    1  UNL1        0.0750
     31 C          91.2520   80.8080  -10.5530 C.ar    1  UNL1        0.0063
     32 C          92.0230   80.1240   -9.6220 C.ar    1  UNL1        0.0001
     33 C          92.1600   80.6200   -8.3360 C.ar    1  UNL1        0.0032
     34 N          90.7850   81.8090   -5.4140 N.3     1  UNL1       -0.2688
     35 N          87.9490   88.0140   -3.5000 N.ar    1  UNL1       -0.2845
     36 N          88.3220   89.4590   -1.4260 N.ar    1  UNL1       -0.2261
     37 N          89.0740   93.0110    4.8540 N.3     1  UNL1       -0.2688
     38 N          92.1270   93.5360    3.3730 N.pl3   1  UNL1        0.0806
     39 N          90.0350   83.7710   -8.6000 N.pl3   1  UNL1        0.0806
     40 O          86.6270   90.9080   -0.9130 O.2     1  UNL1       -0.2665
     41 O          92.5070   92.3930    3.5540 O.2     1  UNL1        0.0415
     42 O          91.7800   93.9020    2.2650 O.co2   1  UNL1       -0.5760
     43 O          89.8430   87.9110   -2.1910 O.2     1  UNL1       -0.2458
     44 O          89.1470   84.0750   -9.3670 O.2     1  UNL1        0.0415
     45 O          90.3220   84.4830   -7.6590 O.co2   1  UNL1       -0.5760
@<TRIPOS>UNITY_ATOM_ATTR
38 1
charge 1
39 1
charge 1
42 1
charge -1
45 1
charge -1
@<TRIPOS>BOND
     1     2     1    1
     2     4     3    1
     3     5     4    1
     4     6     5    1
     5     7     6    1
     6     9     8    1
     7    10     8   ar
     8    11    10   ar
     9    13    12    2
    10    14    13    1
    11    15    14    1
    12    16    15    1
    13    18    17    1
    14    20    19    1
    15    21    20   ar
    16    22    21   ar
    17    23    22   ar
    18    24    23   ar
    19    25    20   ar
    20    25    24   ar
    21    28    27    1
    22    29    28   ar
    23    30    29   ar
    24    31    30   ar
    25    32    31   ar
    26    33    32   ar
    27    33    28   ar
    28    34     2    1
    29    34    27    1
    30    34     3    1
    31    35     8   ar
    32    35     7    1
    33    35    26   ar
    34    36    11   ar
    35    36    26   ar
    36    36    12    1
    37    37    16    1
    38    37    19    1
    39    37    17    1
    40    38    21    1
    41    39    29    1
    42    40    11    2
    43    41    38    2
    44    42    38    1
    45    43    26    2
    46    44    39    2
    47    45    39    1
