@<TRIPOS>MOLECULE
6NTG_L1M_B609
 13 12 0 0 0
SMALL
GASTEIGER

@<TRIPOS>ATOM
      1 C          90.9730   80.1650   -7.9600 C.3     1  UNL1        0.2021
      2 C          93.3610   80.6290  -10.0820 C.3     1  UNL1        0.0551
      3 C          87.5600   85.6320  -12.4540 C.3     1  UNL1        0.0353
      4 C          87.3180   84.8200  -11.1870 C.3     1  UNL1        0.1536
      5 C          90.1700   81.7310   -9.7470 C.2     1  UNL1        0.3032
      6 C          89.2080   82.3400   -8.7290 C.3     1  UNL1        0.1298
      7 C          90.0710   78.9350   -7.8830 C.3     1  UNL1        0.0551
      8 C          91.9620   80.0430  -10.2690 C.3     1  UNL1        0.2021
      9 N          90.2650   82.1070  -10.9400 N.2     1  UNL1        0.0057
     10 N          91.0330   80.6450   -9.3250 N.pl3   1  UNL1       -0.1942
     11 O          88.5550   84.3600  -10.7420 O.3     1  UNL1       -0.2711
     12 O          90.5000   84.0680  -12.3560 O.2     1  UNL1       -0.2228
     13 P          89.3930   83.3440  -11.7300 P.3     1  UNL1        0.5462
@<TRIPOS>BOND
     1     4     3    1
     2     6     5    1
     3     7     1    1
     4     8     2    1
     5     9     5    2
     6    10     8    1
     7    10     5    1
     8    10     1    1
     9    11     4    1
    10    13    12    2
    11    13     9    1
    12    13    11    1
