@<TRIPOS>MOLECULE
6NTG_HI6_B601
 21 22 0 0 0
SMALL
GASTEIGER

@<TRIPOS>ATOM
      1 O          93.8220   93.7870   -0.4740 O.2     1  UNL1       -0.2667
      2 C          93.9120   93.3490   -1.5740 C.2     1  UNL1        0.2846
      3 N          94.8580   93.9290   -2.5080 N.am    1  UNL1       -0.0837
      4 C          93.1630   92.3340   -1.9610 C.ar    1  UNL1        0.0689
      5 C          92.1610   91.8450   -1.1530 C.ar    1  UNL1        0.0805
      6 C          91.4060   90.7750   -1.6100 C.ar    1  UNL1        0.2924
      7 N          91.6380   90.2300   -2.8020 N.ar    1  UNL1       -0.1308
      8 C          92.6010   90.6870   -3.5960 C.ar    1  UNL1        0.2924
      9 C          93.3880   91.7510   -3.1900 C.ar    1  UNL1        0.0805
     10 C          90.8300   89.1050   -3.2390 C.3     1  UNL1        0.4916
     11 O          89.8480   88.9230   -2.2610 O.3     1  UNL1       -0.2192
     12 C          89.5110   87.5970   -1.9440 C.3     1  UNL1        0.4914
     13 N          88.8360   86.8910   -3.0330 N.ar    1  UNL1       -0.1344
     14 C          87.8640   87.4500   -3.7570 C.ar    1  UNL1        0.2513
     15 C          87.4750   88.6900   -3.5340 C.2     1  UNL1        0.2139
     16 N          86.2860   89.2500   -4.1470 N.2     1  UNL1       -0.0214
     17 O          85.8670   90.5330   -3.7580 O.2     1  UNL1       -0.1429
     18 C          87.2530   86.7250   -4.7770 C.ar    1  UNL1        0.0713
     19 C          87.6470   85.4180   -5.0320 C.ar    1  UNL1        0.0125
     20 C          88.6490   84.8670   -4.2560 C.ar    1  UNL1        0.0759
     21 C          89.2130   85.6450   -3.2640 C.ar    1  UNL1        0.2921
@<TRIPOS>UNITY_ATOM_ATTR
7 1
charge 1
13 1
charge 1
@<TRIPOS>BOND
     1     2     1    2
     2     3     2   am
     3     4     2    1
     4     5     4   ar
     5     6     5   ar
     6     7     6   ar
     7     8     7   ar
     8     9     8   ar
     9     9     4   ar
    10    10     7    1
    11    11    10    1
    12    12    11    1
    13    13    12    1
    14    14    13   ar
    15    15    14    1
    16    16    15    2
    17    17    16    1
    18    18    14   ar
    19    19    18   ar
    20    20    19   ar
    21    21    20   ar
    22    21    13   ar
