@<TRIPOS>MOLECULE
6NTM_HI6_B606
 21 22 0 0 0
SMALL
GASTEIGER

@<TRIPOS>ATOM
      1 O          90.6030   92.6070   -6.9070 O.2     1  UNL1       -0.2667
      2 C          91.0330   92.8130   -5.8290 C.2     1  UNL1        0.2846
      3 N          91.6290   94.0990   -5.5140 N.am    1  UNL1       -0.0837
      4 C          90.9780   91.7060   -4.7860 C.ar    1  UNL1        0.0689
      5 C          92.0070   91.5630   -3.9200 C.ar    1  UNL1        0.0805
      6 C          91.9740   90.5560   -2.9720 C.ar    1  UNL1        0.2924
      7 N          90.9180   89.7160   -2.9180 N.ar    1  UNL1       -0.1308
      8 C          89.8900   89.8550   -3.7900 C.ar    1  UNL1        0.2924
      9 C          89.9180   90.8630   -4.7400 C.ar    1  UNL1        0.0805
     10 C          90.9100   88.6720   -1.9120 C.3     1  UNL1        0.4916
     11 O          90.5100   87.4640   -2.4730 O.3     1  UNL1       -0.2192
     12 C          89.2320   87.0360   -2.1040 C.3     1  UNL1        0.4914
     13 N          89.0180   85.8850   -2.9450 N.ar    1  UNL1       -0.1344
     14 C          87.9090   85.7720   -3.7060 C.ar    1  UNL1        0.2513
     15 C          86.8330   86.8580   -3.6700 C.2     1  UNL1        0.2139
     16 N          86.9210   87.8590   -4.4120 N.2     1  UNL1       -0.0214
     17 O          85.9260   88.8490   -4.3670 O.2     1  UNL1       -0.1429
     18 C          87.7500   84.6580   -4.5100 C.ar    1  UNL1        0.0713
     19 C          88.7160   83.7090   -4.5270 C.ar    1  UNL1        0.0125
     20 C          89.8300   83.8290   -3.7690 C.ar    1  UNL1        0.0759
     21 C          89.9820   84.9400   -2.9680 C.ar    1  UNL1        0.2921
@<TRIPOS>UNITY_ATOM_ATTR
7 1
charge 1
13 1
charge 1
@<TRIPOS>BOND
     1     2     1    2
     2     3     2   am
     3     4     2    1
     4     5     4   ar
     5     6     5   ar
     6     7     6   ar
     7     8     7   ar
     8     9     8   ar
     9     9     4   ar
    10    10     7    1
    11    11    10    1
    12    12    11    1
    13    13    12    1
    14    14    13   ar
    15    15    14    1
    16    16    15    2
    17    17    16    1
    18    18    14   ar
    19    19    18   ar
    20    20    19   ar
    21    21    20   ar
    22    21    13   ar
