@<TRIPOS>MOLECULE
6NTN_L2Y_A608
 11 10 0 0 0
SMALL
GASTEIGER

@<TRIPOS>ATOM
      1  C01       90.5090   79.9180   -7.2500 C.3   608  L2Y608      0.0551
      2  C02       91.0950   81.1600   -7.9070 C.3   608  L2Y608      0.2021
      3  C04       90.8380   80.0200  -10.1360 C.3   608  L2Y608      0.2021
      4  C05       92.2320   80.0400  -10.7630 C.3   608  L2Y608      0.0551
      5  C06       90.1930   82.4250   -9.8560 C.2   608  L2Y608      0.2996
      6  C07       90.0840   83.6530   -8.9570 C.3   608  L2Y608      0.1296
      7  C11       87.9140   84.7530  -11.1950 C.3   608  L2Y608      0.1142
      8  N03       90.6980   81.1960   -9.2970 N.pl3 608  L2Y608     -0.1942
      9  N08       89.8680   82.3980  -11.0580 N.2   608  L2Y608     -0.0347
     10  O12       90.3900   84.5370  -12.4130 O.3   608  L2Y608     -0.1531
     11  P09       89.2740   83.7180  -11.9450 P.3   608  L2Y608      0.3244
@<TRIPOS>BOND
     1    10    11    1
     2    11     7    1
     3    11     9    1
     4     9     5    2
     5     4     3    1
     6     3     8    1
     7     5     8    1
     8     5     6    1
     9     8     2    1
    10     2     1    1
