@<TRIPOS>MOLECULE
6O4W_E20_A604
 28 31 0 0 0
SMALL
GASTEIGER

@<TRIPOS>ATOM
      1 C          87.4230   89.9720   -1.9210 C.ar    1  UNL1        0.1725
      2 C          88.6680   89.5920   -1.4280 C.ar    1  UNL1        0.1721
      3 C          89.2860   88.4480   -1.9260 C.ar    1  UNL1        0.0359
      4 C          88.6450   87.6790   -2.9360 C.ar    1  UNL1       -0.0158
      5 C          87.4210   88.0580   -3.4180 C.ar    1  UNL1        0.0340
      6 C          86.7910   89.2220   -2.9120 C.ar    1  UNL1        0.0426
      7 C          87.0340   87.1190   -4.4130 C.2     1  UNL1        0.1727
      8 C          88.0150   86.1320   -4.5250 C.3     1  UNL1        0.0663
      9 C          89.0250   86.4960   -3.6250 C.3     1  UNL1        0.0342
     10 C          87.5780   84.6690   -4.6810 C.3     1  UNL1        0.0081
     11 C          88.5320   83.7550   -5.6340 C.3     1  UNL1        0.0032
     12 C          89.8560   83.6600   -5.0680 C.3     1  UNL1        0.0174
     13 C          90.7330   82.6450   -5.8100 C.3     1  UNL1        0.0724
     14 N          90.0960   81.3360   -5.8830 N.3     1  UNL1       -0.2690
     15 C          88.7390   81.3630   -6.3830 C.3     1  UNL1        0.0724
     16 C          87.8800   82.4380   -5.7180 C.3     1  UNL1        0.0174
     17 C          90.8020   80.4330   -6.2870 C.3     1  UNL1        0.0991
     18 C          91.1200   80.3710   -7.8010 C.ar    1  UNL1       -0.0061
     19 C          92.2540   80.9980   -8.3080 C.ar    1  UNL1       -0.0029
     20 C          92.5540   80.9420   -9.6630 C.ar    1  UNL1       -0.0003
     21 C          91.7320   80.2370  -10.5320 C.ar    1  UNL1       -0.0000
     22 C          90.6070   79.5920  -10.0350 C.ar    1  UNL1       -0.0003
     23 C          90.3130   79.6490   -8.6780 C.ar    1  UNL1       -0.0029
     24 O          85.8340   87.1630   -5.1300 O.2     1  UNL1       -0.2913
     25 O          86.8290   91.1270   -1.4030 O.3     1  UNL1       -0.4684
     26 C          85.4340   91.1090   -1.4160 C.3     1  UNL1        0.2526
     27 O          89.2650   90.3810   -0.4330 O.3     1  UNL1       -0.4684
     28 C          90.5590   90.0100   -0.0570 C.3     1  UNL1        0.2526
@<TRIPOS>BOND
     1     2     1   ar
     2     3     2   ar
     3     4     3   ar
     4     5     4   ar
     5     6     5   ar
     6     6     1   ar
     7     7     5    1
     8     8     7    1
     9     9     8    1
    10     9     4    1
    11     8    10    1
    12    11    10    1
    13    12    11    1
    14    13    12    1
    15    14    13    1
    16    15    14    1
    17    16    15    1
    18    16    11    1
    19    17    14    1
    20    18    17    1
    21    19    18   ar
    22    20    19   ar
    23    21    20   ar
    24    22    21   ar
    25    23    22   ar
    26    23    18   ar
    27    24     7    2
    28    25     1    1
    29    26    25    1
    30    27     2    1
    31    28    27    1
