@<TRIPOS>MOLECULE
6O4X_AA_B603
 15 17 0 0 0
SMALL
GASTEIGER

@<TRIPOS>ATOM
      1 C          92.6560   81.3620   -8.7930 C.ar    1  UNL1        0.0075
      2 C          92.7560   81.1120  -10.1530 C.ar    1  UNL1        0.0004
      3 C          91.9560   80.1430  -10.7400 C.ar    1  UNL1        0.0063
      4 C          91.0570   79.4220   -9.9680 C.ar    1  UNL1        0.0762
      5 C          89.0350   78.4070   -5.8770 C.ar    1  UNL1        0.0762
      6 C          88.8860   78.6060   -4.5130 C.ar    1  UNL1        0.0063
      7 C          89.6500   79.5570   -3.8530 C.ar    1  UNL1        0.0004
      8 C          90.5640   80.3160   -4.5630 C.ar    1  UNL1        0.0075
      9 C          91.6400   80.8820   -6.6400 C.ar    1  UNL1        0.1009
     10 N          90.0980   78.9760   -7.8860 N.ar    1  UNL1        0.0759
     11 C          89.9520   79.1640   -6.5850 C.ar    1  UNL1        0.2979
     12 C          90.7120   80.1150   -5.9250 C.ar    1  UNL1        0.0871
     13 C          91.7580   80.6440   -8.0190 C.ar    1  UNL1        0.0871
     14 C          90.9590   79.6740   -8.6080 C.ar    1  UNL1        0.2979
     15 N          92.4230   81.8580   -5.9760 N.pl3   1  UNL1       -0.1276
@<TRIPOS>UNITY_ATOM_ATTR
10 1
charge 1
@<TRIPOS>BOND
     1     2     1   ar
     2     3     2   ar
     3     4     3   ar
     4     6     5   ar
     5     7     6   ar
     6     8     7   ar
     7    11    10   ar
     8    11     5   ar
     9    12    11   ar
    10    12     9   ar
    11    12     8   ar
    12    13     9   ar
    13    13     1   ar
    14    14    13   ar
    15    14    10   ar
    16    14     4   ar
    17    15     9    1
