@<TRIPOS>MOLECULE
6O50_EBW_A601
 30 31 0 0 0
SMALL
GASTEIGER

@<TRIPOS>ATOM
      1 C          87.7350   85.8760   -5.3790 C.2     1  UNL1        0.1513
      2 C          88.0590   86.3620   -3.9850 C.3     1  UNL1        0.0692
      3 C          88.4280   84.6600   -5.9450 C.3     1  UNL1        0.0692
      4 C          88.2790   87.8560   -4.0110 C.3     1  UNL1        0.0341
      5 C          88.5990   88.4500   -2.6590 C.ar    1  UNL1       -0.0214
      6 C          87.7310   89.3750   -2.1040 C.ar    1  UNL1        0.0016
      7 C          88.0140   89.9290   -0.8680 C.ar    1  UNL1        0.0627
      8 C          89.1690   89.5660   -0.1960 C.ar    1  UNL1        0.1660
      9 C          90.0380   88.6390   -0.7500 C.ar    1  UNL1        0.0627
     10 N          91.8060   80.5140   -9.4690 N.pl3   1  UNL1       -0.3119
     11 N          89.4460   90.1320    1.0720 N.pl3   1  UNL1       -0.3119
     12 C          89.7540   88.0820   -1.9880 C.ar    1  UNL1        0.0016
     13 C          89.2210   85.0350   -7.1760 C.3     1  UNL1        0.0341
     14 C          89.9040   83.8380   -7.7920 C.ar    1  UNL1       -0.0214
     15 C          90.9210   83.2040   -7.1010 C.ar    1  UNL1        0.0016
     16 C          91.5510   82.1020   -7.6580 C.ar    1  UNL1        0.0627
     17 C          91.1580   81.6420   -8.9060 C.ar    1  UNL1        0.1660
     18 C          90.1380   82.2800   -9.5970 C.ar    1  UNL1        0.0627
     19 C          89.5110   83.3770   -9.0370 C.ar    1  UNL1        0.0016
     20 C          91.2610   80.2430  -10.7490 C.3     1  UNL1        0.3354
     21 C          93.1970   80.7770   -9.5750 C.3     1  UNL1        0.3354
     22 C          91.5840   79.3970   -8.6220 C.3     1  UNL1        0.2836
     23 C          90.1220   79.3170   -8.2390 C.2     1  UNL1        0.0513
     24 C          89.4460   89.0670    2.0110 C.3     1  UNL1        0.2836
     25 C          88.4370   91.0790    1.3890 C.3     1  UNL1        0.3354
     26 C          90.7110   90.7750    1.0630 C.3     1  UNL1        0.3354
     27 C          88.2730   89.1740    2.9570 C.2     1  UNL1        0.0513
     28 C          87.2600   88.2920    2.8410 C.2     1  UNL1        0.0020
     29 C          89.7710   78.8820   -7.0120 C.2     1  UNL1        0.0020
     30 O          86.9200   86.4740   -6.0500 O.2     1  UNL1       -0.2960
@<TRIPOS>UNITY_ATOM_ATTR
10 1
charge 1
11 1
charge 1
@<TRIPOS>BOND
     1     2     1    1
     2     3     1    1
     3     4     2    1
     4     5     4    1
     5     6     5   ar
     6     7     6   ar
     7     8     7   ar
     8     9     8   ar
     9    11     8    1
    10    12     9   ar
    11    12     5   ar
    12    13     3    1
    13    14    13    1
    14    15    14   ar
    15    16    15   ar
    16    17    10    1
    17    17    16   ar
    18    18    17   ar
    19    19    18   ar
    20    19    14   ar
    21    10    20    1
    22    21    10    1
    23    22    10    1
    24    23    22    1
    25    24    11    1
    26    11    25    1
    27    26    11    1
    28    27    24    1
    29    28    27    2
    30    29    23    2
    31    30     1    2
