@<TRIPOS>MOLECULE
6O50_EBW_A601
 30 31 0 0 0
SMALL
GASTEIGER

@<TRIPOS>ATOM
      1 C          87.6930   85.8770   -5.3960 C.2     1  UNL1        0.1513
      2 C          88.0120   86.3600   -4.0010 C.3     1  UNL1        0.0692
      3 C          88.3900   84.6640   -5.9640 C.3     1  UNL1        0.0692
      4 C          88.2270   87.8560   -4.0230 C.3     1  UNL1        0.0341
      5 C          88.5440   88.4470   -2.6700 C.ar    1  UNL1       -0.0214
      6 C          87.6720   89.3680   -2.1140 C.ar    1  UNL1        0.0016
      7 C          87.9510   89.9210   -0.8760 C.ar    1  UNL1        0.0627
      8 C          89.1050   89.5590   -0.2030 C.ar    1  UNL1        0.1660
      9 C          89.9770   88.6360   -0.7570 C.ar    1  UNL1        0.0627
     10 N          91.7870   80.5340   -9.4880 N.pl3   1  UNL1       -0.3119
     11 N          89.3780   90.1230    1.0670 N.pl3   1  UNL1       -0.3119
     12 C          89.6980   88.0810   -1.9960 C.ar    1  UNL1        0.0016
     13 C          89.1850   85.0440   -7.1920 C.3     1  UNL1        0.0341
     14 C          89.8720   83.8490   -7.8090 C.ar    1  UNL1       -0.0214
     15 C          90.8890   83.2160   -7.1170 C.ar    1  UNL1        0.0016
     16 C          91.5230   82.1180   -7.6750 C.ar    1  UNL1        0.0627
     17 C          91.1340   81.6590   -8.9250 C.ar    1  UNL1        0.1660
     18 C          90.1150   82.2960   -9.6160 C.ar    1  UNL1        0.0627
     19 C          89.4830   83.3900   -9.0560 C.ar    1  UNL1        0.0016
     20 C          91.2450   80.2640  -10.7710 C.3     1  UNL1        0.3354
     21 C          93.1770   80.8010   -9.5900 C.3     1  UNL1        0.3354
     22 C          91.5660   79.4150   -8.6450 C.3     1  UNL1        0.2836
     23 C          90.1030   79.3300   -8.2650 C.2     1  UNL1        0.0513
     24 C          89.3780   89.0560    2.0040 C.3     1  UNL1        0.2836
     25 C          88.3650   91.0670    1.3840 C.3     1  UNL1        0.3354
     26 C          90.6410   90.7690    1.0620 C.3     1  UNL1        0.3354
     27 C          88.2020   89.1580    2.9480 C.2     1  UNL1        0.0513
     28 C          87.1920   88.2740    2.8280 C.2     1  UNL1        0.0020
     29 C          89.7510   78.8910   -7.0400 C.2     1  UNL1        0.0020
     30 O          86.8770   86.4740   -6.0690 O.2     1  UNL1       -0.2960
@<TRIPOS>UNITY_ATOM_ATTR
10 1
charge 1
11 1
charge 1
@<TRIPOS>BOND
     1     2     1    1
     2     3     1    1
     3     4     2    1
     4     5     4    1
     5     6     5   ar
     6     7     6   ar
     7     8     7   ar
     8     9     8   ar
     9    11     8    1
    10    12     9   ar
    11    12     5   ar
    12    13     3    1
    13    14    13    1
    14    15    14   ar
    15    16    15   ar
    16    17    10    1
    17    17    16   ar
    18    18    17   ar
    19    19    18   ar
    20    19    14   ar
    21    10    20    1
    22    21    10    1
    23    22    10    1
    24    23    22    1
    25    24    11    1
    26    11    25    1
    27    26    11    1
    28    27    24    1
    29    28    27    2
    30    29    23    2
    31    30     1    2
