@<TRIPOS>MOLECULE
6O52_EBW_B601
 30 31 0 0 0
SMALL
GASTEIGER

@<TRIPOS>ATOM
      1 C          87.7550   85.8910   -5.5120 C.2     1  UNL1        0.1513
      2 C          88.1570   86.4300   -4.1600 C.3     1  UNL1        0.0692
      3 C          88.3880   84.6270   -6.0550 C.3     1  UNL1        0.0692
      4 C          87.8290   87.9020   -4.0740 C.3     1  UNL1        0.0341
      5 C          88.2010   88.5110   -2.7430 C.ar    1  UNL1       -0.0214
      6 C          87.2120   89.0640   -1.9470 C.ar    1  UNL1        0.0016
      7 C          87.5440   89.6260   -0.7260 C.ar    1  UNL1        0.0627
      8 C          88.8650   89.6430   -0.3090 C.ar    1  UNL1        0.1660
      9 C          89.8540   89.0850   -1.1030 C.ar    1  UNL1        0.0627
     10 N          91.9750   80.3460   -9.2670 N.pl3   1  UNL1       -0.3119
     11 N          89.1910   90.2110    0.9470 N.pl3   1  UNL1       -0.3119
     12 C          89.5220   88.5210   -2.3240 C.ar    1  UNL1        0.0016
     13 C          89.1250   84.9000   -7.3480 C.3     1  UNL1        0.0341
     14 C          89.8790   83.6920   -7.8580 C.ar    1  UNL1       -0.0214
     15 C          90.7790   83.0400   -7.0300 C.ar    1  UNL1        0.0016
     16 C          91.4730   81.9330   -7.4980 C.ar    1  UNL1        0.0627
     17 C          91.2660   81.4800   -8.7940 C.ar    1  UNL1        0.1660
     18 C          90.3660   82.1360   -9.6210 C.ar    1  UNL1        0.0627
     19 C          89.6750   83.2400   -9.1520 C.ar    1  UNL1        0.0016
     20 C          91.4790   79.9640  -10.5400 C.3     1  UNL1        0.3354
     21 C          93.3540   80.6640   -9.3680 C.3     1  UNL1        0.3354
     22 C          91.7940   79.2740   -8.3570 C.3     1  UNL1        0.2836
     23 C          90.3230   79.0260   -8.1050 C.2     1  UNL1        0.0513
     24 C          89.5610   89.1350    1.7970 C.3     1  UNL1        0.2836
     25 C          88.0520   90.8800    1.4660 C.3     1  UNL1        0.3354
     26 C          90.2620   91.1330    0.8200 C.3     1  UNL1        0.3354
     27 C          88.7250   89.1090    3.0570 C.2     1  UNL1        0.0513
     28 C          88.3050   87.9240    3.5440 C.2     1  UNL1        0.0020
     29 C          89.9440   78.2950   -7.0380 C.2     1  UNL1        0.0020
     30 O          86.9180   86.4860   -6.1640 O.2     1  UNL1       -0.2960
@<TRIPOS>UNITY_ATOM_ATTR
10 1
charge 1
11 1
charge 1
@<TRIPOS>BOND
     1     2     1    1
     2     3     1    1
     3     4     2    1
     4     5     4    1
     5     6     5   ar
     6     7     6   ar
     7     8     7   ar
     8     9     8   ar
     9    11     8    1
    10    12     9   ar
    11    12     5   ar
    12    13     3    1
    13    14    13    1
    14    15    14   ar
    15    16    15   ar
    16    17    10    1
    17    17    16   ar
    18    18    17   ar
    19    19    18   ar
    20    19    14   ar
    21    10    20    1
    22    21    10    1
    23    22    10    1
    24    23    22    1
    25    24    11    1
    26    11    25    1
    27    26    11    1
    28    27    24    1
    29    28    27    2
    30    29    23    2
    31    30     1    2
