@<TRIPOS>MOLECULE
6U37_PQV_A602
 15 15 0 0 0
SMALL
GASTEIGER

@<TRIPOS>ATOM
      1 C          86.0620   88.2680   -4.5870 C.3     1  UNL1        0.0721
      2 C          86.1730   86.9800   -5.3940 C.3     1  UNL1        0.0173
      3 C          86.6460   85.8660   -4.4710 C.3     1  UNL1        0.0015
      4 C          88.1700   85.8270   -4.4500 C.3     1  UNL1        0.0015
      5 C          88.7360   87.2050   -4.7510 C.3     1  UNL1        0.0173
      6 C          88.3360   88.2120   -3.6860 C.3     1  UNL1        0.0721
      7 N          86.8990   88.2140   -3.3770 N.3     1  UNL1       -0.2712
      8 C          86.6240   89.3800   -2.5210 C.3     1  UNL1        0.0958
      9 C          86.8720   89.0480   -1.0470 C.3     1  UNL1        0.1328
     10 N          87.9400   89.8910   -0.4850 N.am    1  UNL1       -0.1988
     11 C          89.2120   89.4690   -0.4150 C.2     1  UNL1        0.2877
     12 O          89.5930   88.3700   -0.8150 O.2     1  UNL1       -0.2665
     13 C          90.2000   90.4530    0.2170 C.2     1  UNL1        0.2041
     14 N          89.6610   91.5830    0.6940 N.2     1  UNL1       -0.0229
     15 O          90.5770   92.5390    1.3100 O.2     1  UNL1       -0.1430
@<TRIPOS>BOND
     1     2     1    1
     2     3     2    1
     3     4     3    1
     4     5     4    1
     5     6     5    1
     6     7     1    1
     7     7     6    1
     8     8     7    1
     9     9     8    1
    10    10     9    1
    11    11    10   am
    12    12    11    2
    13    13    11    1
    14    14    13    2
    15    15    14    1
