@<TRIPOS>MOLECULE
6U37_VX_A601
 6 5 0 0 0
SMALL
GASTEIGER

@<TRIPOS>ATOM
      1  P1        89.2420   83.8600  -11.9030 P.3   601  VX601       0.2205
      2  O1        90.6400   84.1890  -12.3680 O.3   601  VX601      -0.1774
      3  O2        89.2690   83.3310  -10.3430 O.3   601  VX601      -0.3173
      4  C1        88.1610   85.3670  -12.0330 C.3   601  VX601       0.0904
      5  C2        90.0120   84.0620   -9.4080 C.3   601  VX601       0.1487
      6  C3        89.5630   83.7010   -7.9940 C.3   601  VX601       0.0351
@<TRIPOS>BOND
     1     2     1    1
     2     4     1    1
     3     1     3    1
     4     3     5    1
     5     5     6    1
