@<TRIPOS>MOLECULE
6U3P_PQY_A601
 23 23 0 0 0
SMALL
GASTEIGER

@<TRIPOS>ATOM
      1 N          88.5420   85.0070   -5.4530 N.3     1  UNL1       -0.2700
      2 N          89.6770   83.4090   -8.3690 N.am    1  UNL1       -0.1988
      3 C          89.7950   86.5390   -4.3830 C.3     1  UNL1        0.0897
      4 C          89.4710   85.0720   -4.5580 C.3     1  UNL1        0.0897
      5 C          88.8750   86.8150   -2.3880 C.3     1  UNL1        0.0958
      6 C          90.1540   87.1830   -1.6330 C.3     1  UNL1        0.1328
      7 C          88.7650   84.0170   -6.2330 C.3     1  UNL1        0.0958
      8 C          90.2920   82.0790   -8.3680 C.2     1  UNL1        0.2877
      9 C          88.8560   89.8810    0.5360 C.2     1  UNL1        0.2041
     10 C          87.4260   84.8600   -4.8180 C.3     1  UNL1        0.0736
     11 C          91.2050   81.6060   -9.5090 C.2     1  UNL1        0.2041
     12 C          88.8240   89.2140   -0.8390 C.2     1  UNL1        0.2877
     13 C          86.8450   86.1390   -4.2660 C.3     1  UNL1        0.0346
     14 C          87.7980   87.3630   -4.2470 C.3     1  UNL1        0.0736
     15 C          89.8180   84.3460   -7.2880 C.3     1  UNL1        0.1328
     16 N          88.9220   87.2120   -3.6690 N.3     1  UNL1       -0.2700
     17 N          90.0650   88.5650   -1.2620 N.am    1  UNL1       -0.1988
     18 N          89.9530   89.7460    1.1300 N.2     1  UNL1       -0.0229
     19 N          91.4200   80.3840   -9.5800 N.2     1  UNL1       -0.0229
     20 O          90.1060   81.3000   -7.5320 O.2     1  UNL1       -0.2665
     21 O          87.8620   89.2520   -1.5240 O.2     1  UNL1       -0.2665
     22 O          90.1600   90.2910    2.3660 O.2     1  UNL1       -0.1430
     23 O          92.2290   80.0390  -10.6100 O.2     1  UNL1       -0.1430
@<TRIPOS>BOND
     1     4     1    1
     2     4     3    1
     3     6     5    1
     4     7     1    1
     5     8     2   am
     6    10     1    1
     7    11     8    1
     8    12     9    1
     9    13    10    1
    10    14    13    1
    11    15     7    1
    12    15     2    1
    13    16     5    1
    14    16     3    1
    15    16    14    1
    16    17     6    1
    17    17    12   am
    18    18     9    2
    19    19    11    2
    20    20     8    2
    21    21    12    2
    22    22    18    1
    23    23    19    1
