@<TRIPOS>MOLECULE
6WUY_ELT_A605
 8 7 0 0 0
SMALL
GASTEIGER

@<TRIPOS>ATOM
      1  P01       89.2880   83.5080  -12.4380 P.3   605  ELT605      0.2957
      2  O02       90.3930   84.2820  -12.1730 O.3   605  ELT605     -0.1587
      3  N03       88.1570   84.6200  -12.0780 N.3   605  ELT605     -0.2110
      4  C04       87.4600   84.5500  -10.8510 C.3   605  ELT605      0.0975
      5  C05       88.3440   85.9330  -12.5740 C.3   605  ELT605      0.0975
      6  O06       89.1120   82.5420  -11.2330 O.3   605  ELT605     -0.3061
      7  C07       90.0220   82.5540  -10.2220 C.3   605  ELT605      0.1499
      8  C08       89.6530   83.6460   -9.2640 C.3   605  ELT605      0.0351
@<TRIPOS>BOND
     1     5     3    1
     2     1     2    1
     3     1     3    1
     4     1     6    1
     5     3     4    1
     6     6     7    1
     7     7     8    1
