@<TRIPOS>MOLECULE
6WUY_HI6_A606
 21 22 0 0 0
SMALL
GASTEIGER

@<TRIPOS>ATOM
      1 O          90.2760   93.1010   -6.7800 O.2     1  UNL1       -0.2667
      2 C          91.0950   92.7450   -6.0050 C.2     1  UNL1        0.2846
      3 N          92.3750   93.4250   -5.9340 N.am    1  UNL1       -0.0837
      4 C          90.8580   91.7420   -5.1860 C.ar    1  UNL1        0.0689
      5 C          89.6220   91.1180   -5.1380 C.ar    1  UNL1        0.0805
      6 C          89.4450   90.0660   -4.2450 C.ar    1  UNL1        0.2924
      7 N          90.4490   89.6810   -3.4560 N.ar    1  UNL1       -0.1308
      8 C          91.6310   90.2770   -3.4970 C.ar    1  UNL1        0.2924
      9 C          91.8780   91.3240   -4.3590 C.ar    1  UNL1        0.0805
     10 C          90.3000   88.5960   -2.5070 C.3     1  UNL1        0.4916
     11 O          89.1550   87.8600   -2.7910 O.3     1  UNL1       -0.2192
     12 C          89.1800   86.6730   -2.0620 C.3     1  UNL1        0.4914
     13 N          89.1700   85.6250   -3.0560 N.ar    1  UNL1       -0.1344
     14 C          90.3170   85.0310   -3.3680 C.ar    1  UNL1        0.2513
     15 C          91.4310   85.4020   -2.7650 C.2     1  UNL1        0.2139
     16 N          92.6570   85.6280   -3.5140 N.2     1  UNL1       -0.0214
     17 O          93.5910   84.5950   -3.6850 O.2     1  UNL1       -0.1429
     18 C          90.3360   84.0230   -4.3260 C.ar    1  UNL1        0.0713
     19 C          89.1430   83.6690   -4.9380 C.ar    1  UNL1        0.0125
     20 C          87.9780   84.3210   -4.5740 C.ar    1  UNL1        0.0759
     21 C          88.0230   85.3140   -3.6220 C.ar    1  UNL1        0.2921
@<TRIPOS>UNITY_ATOM_ATTR
7 1
charge 1
13 1
charge 1
@<TRIPOS>BOND
     1     2     1    2
     2     3     2   am
     3     4     2    1
     4     5     4   ar
     5     6     5   ar
     6     7     6   ar
     7     8     7   ar
     8     9     8   ar
     9     9     4   ar
    10    10     7    1
    11    11    10    1
    12    12    11    1
    13    13    12    1
    14    14    13   ar
    15    15    14    1
    16    16    15    2
    17    17    16    1
    18    18    14   ar
    19    19    18   ar
    20    20    19   ar
    21    21    20   ar
    22    21    13   ar
