@<TRIPOS>MOLECULE
6WUZ_UCJ_B602
 7 6 0 0 0
SMALL
GASTEIGER

@<TRIPOS>ATOM
      1  O1        90.4120   84.1730  -12.1300 O.3   602  UCJ602     -0.1774
      2  P1        89.1270   83.7190  -12.0220 P.3   602  UCJ602      0.2205
      3  C1        88.1650   85.1600  -12.3700 C.3   602  UCJ602      0.0904
      4  O2        88.8360   83.5480  -10.5600 O.3   602  UCJ602     -0.3199
      5  C2        89.8200   83.4740   -9.5890 C.3   602  UCJ602      0.1215
      6  C4        89.9500   84.8270   -8.9530 C.3   602  UCJ602      0.0325
      7  C3        89.3360   82.4550   -8.5830 C.3   602  UCJ602      0.0325
@<TRIPOS>BOND
     1     3     2    1
     2     1     2    1
     3     2     4    1
     4     4     5    1
     5     5     6    1
     6     5     7    1
