@<TRIPOS>MOLECULE
6WV1_HI6_A608
 21 22 0 0 0
SMALL
GASTEIGER

@<TRIPOS>ATOM
      1 O          94.2150   93.4170   -1.6090 O.2     1  UNL1       -0.2667
      2 C          94.0240   92.9060   -2.6440 C.2     1  UNL1        0.2846
      3 N          94.8090   93.2420   -3.8170 N.am    1  UNL1       -0.0837
      4 C          92.9240   91.8810   -2.7330 C.ar    1  UNL1        0.0689
      5 C          92.1370   91.6430   -1.6480 C.ar    1  UNL1        0.0805
      6 C          91.1500   90.7070   -1.7770 C.ar    1  UNL1        0.2924
      7 N          90.9790   90.0690   -2.9000 N.ar    1  UNL1       -0.1308
      8 C          91.7150   90.2990   -3.9370 C.ar    1  UNL1        0.2924
      9 C          92.7220   91.2120   -3.8950 C.ar    1  UNL1        0.0805
     10 C          89.9410   89.1010   -3.0260 C.3     1  UNL1        0.4916
     11 O          90.3410   87.9350   -2.4160 O.3     1  UNL1       -0.2192
     12 C          89.2400   87.1810   -2.0620 C.3     1  UNL1        0.4914
     13 N          89.1720   86.0190   -2.9140 N.ar    1  UNL1       -0.1344
     14 C          88.1800   85.8670   -3.7560 C.ar    1  UNL1        0.2513
     15 C          87.1080   86.9270   -3.8630 C.2     1  UNL1        0.2139
     16 N          86.8160   87.3920   -4.9770 N.2     1  UNL1       -0.0214
     17 O          85.8260   88.3590   -4.9770 O.2     1  UNL1       -0.1429
     18 C          88.0720   84.7800   -4.5740 C.ar    1  UNL1        0.0713
     19 C          89.0500   83.8330   -4.4950 C.ar    1  UNL1        0.0125
     20 C          90.0830   84.0150   -3.6090 C.ar    1  UNL1        0.0759
     21 C          90.1150   85.1310   -2.8230 C.ar    1  UNL1        0.2921
@<TRIPOS>UNITY_ATOM_ATTR
7 1
charge 1
13 1
charge 1
@<TRIPOS>BOND
     1     2     1    2
     2     3     2   am
     3     4     2    1
     4     5     4   ar
     5     6     5   ar
     6     7     6   ar
     7     8     7   ar
     8     9     8   ar
     9     9     4   ar
    10    10     7    1
    11    11    10    1
    12    12    11    1
    13    13    12    1
    14    14    13   ar
    15    15    14    1
    16    16    15    2
    17    17    16    1
    18    18    14   ar
    19    19    18   ar
    20    20    19   ar
    21    21    20   ar
    22    21    13   ar
