@<TRIPOS>MOLECULE
7D9O_H0L_B601
 30 33 0 0 0
SMALL
GASTEIGER

@<TRIPOS>ATOM
      1 N          89.7830   81.7040   -6.0610 N.3     1  UNL1       -0.2688
      2 C          88.5450   87.8590   -2.8150 C.ar    1  UNL1       -0.0158
      3 C          87.2780   88.2280   -3.2400 C.ar    1  UNL1        0.0340
      4 C          86.6070   89.3200   -2.6970 C.ar    1  UNL1        0.0426
      5 C          87.2530   90.0590   -1.7350 C.ar    1  UNL1        0.1725
      6 C          85.4030   91.5140   -1.5030 C.3     1  UNL1        0.2526
      7 C          87.7530   86.0750   -4.1960 C.3     1  UNL1        0.0689
      8 C          87.7790   82.8440   -5.1390 C.3     1  UNL1        0.0500
      9 C          90.5040   80.4460   -6.2960 C.3     1  UNL1        0.0992
     10 C          92.2790   80.9820   -7.9980 C.ar    1  UNL1       -0.0006
     11 C          90.7960   79.8350  -10.0320 C.ar    1  UNL1        0.0294
     12 C          90.3220   79.8430   -8.7310 C.ar    1  UNL1       -0.0006
     13 C          90.5180   82.5810   -5.1540 C.3     1  UNL1        0.0751
     14 C          89.0240   86.6450   -3.5680 C.3     1  UNL1        0.0343
     15 C          90.4360   90.2790    0.0230 C.3     1  UNL1        0.2526
     16 C          87.8660   85.3880   -5.5500 C.3     1  UNL1        0.0407
     17 C          88.5340   84.0230   -5.7340 C.3     1  UNL1        0.1369
     18 C          88.4020   81.5150   -5.5960 C.3     1  UNL1        0.0751
     19 C          91.0600   80.4010   -7.7030 C.ar    1  UNL1       -0.0060
     20 C          92.7720   80.9830   -9.2940 C.ar    1  UNL1        0.0294
     21 C          92.0090   80.4110  -10.2750 C.ar    1  UNL1        0.1401
     22 C          88.5470   89.6960   -1.2950 C.ar    1  UNL1        0.1721
     23 C          89.9900   83.9950   -5.2770 C.3     1  UNL1        0.0500
     24 C          89.1990   88.6070   -1.8480 C.ar    1  UNL1        0.0359
     25 C          86.8090   87.2630   -4.2390 C.2     1  UNL1        0.1728
     26 F          88.4870   83.8910   -7.1510 F       1  UNL1       -0.2399
     27 F          92.4800   80.4050  -11.5540 F       1  UNL1       -0.2042
     28 O          89.0740   90.5150   -0.3330 O.3     1  UNL1       -0.4684
     29 O          86.7310   91.1630   -1.1290 O.3     1  UNL1       -0.4684
     30 O          85.7930   87.3270   -4.9150 O.2     1  UNL1       -0.2913
@<TRIPOS>BOND
     1     3     2   ar
     2     4     3   ar
     3     5     4   ar
     4     9     1    1
     5    12    11   ar
     6    13     1    1
     7    14     7    1
     8    14     2    1
     9     7    16    1
    10    17    16    1
    11    17     8    1
    12    18     1    1
    13    18     8    1
    14    19    12   ar
    15    19    10   ar
    16    19     9    1
    17    20    10   ar
    18    21    11   ar
    19    21    20   ar
    20    22     5   ar
    21    23    17    1
    22    23    13    1
    23    24    22   ar
    24    24     2   ar
    25    25     7    1
    26    25     3    1
    27    17    26    1
    28    27    21    1
    29    28    22    1
    30    28    15    1
    31    29     6    1
    32    29     5    1
    33    30    25    2
