@<TRIPOS>MOLECULE
7P1P_4IX_aa601
 34 36 0 0 0
SMALL
GASTEIGER

@<TRIPOS>ATOM
      1 C          86.0900   96.9610   -0.9050 C.3     1  UNL1        0.2142
      2 C          85.3520   95.7340   -0.5290 C.3     1  UNL1        0.1835
      3 C          86.3060   93.6550    0.6930 C.3     1  UNL1        0.2695
      4 C          87.7550   91.7840    0.7100 C.3     1  UNL1        0.1449
      5 C          89.2880   91.3310    0.6330 C.3     1  UNL1        0.0326
      6 C          89.5260   90.1780   -0.3640 C.3     1  UNL1        0.0090
      7 C          88.1830   89.6910   -0.9500 C.3     1  UNL1        0.0494
      8 C          88.1840   88.5420   -2.0240 C.ar    1  UNL1        0.1008
      9 C          89.0660   87.4560   -2.1210 C.ar    1  UNL1        0.1131
     10 C          89.3090   85.4840   -3.6410 C.3     1  UNL1        0.1296
     11 C          88.5260   84.9570   -4.9150 C.3     1  UNL1        0.0327
     12 C          89.1690   83.6130   -5.3390 C.3     1  UNL1        0.0479
     13 C          89.4970   83.5070   -6.8450 C.ar    1  UNL1        0.0593
     14 C          89.4460   84.6290   -7.6690 C.ar    1  UNL1        0.0180
     15 C          89.7380   84.5140   -9.0420 C.ar    1  UNL1        0.0449
     16 C          90.0860   83.2350   -9.5900 C.ar    1  UNL1        0.2148
     17 C          90.1160   82.1350   -8.7060 C.ar    1  UNL1        0.1422
     18 C          90.4410   80.6550   -9.1860 C.2     1  UNL1        0.1672
     19 C          85.6230   94.2500    1.9350 C.3     1  UNL1        0.2406
     20 C          84.2980   94.8020    1.4950 C.3     1  UNL1        0.2198
     21 C          84.5650   96.0390    0.7600 C.3     1  UNL1        0.2144
     22 N          88.6750   86.7140   -3.1700 N.ar    1  UNL1       -0.2306
     23 N          91.4380   80.3350   -9.9090 N.2     1  UNL1       -0.0261
     24 N          89.8280   82.3080   -7.3940 N.ar    1  UNL1       -0.2447
     25 N          87.5970   87.2590   -3.7500 N.ar    1  UNL1       -0.0641
     26 N          87.2840   88.3990   -3.0210 N.ar    1  UNL1       -0.1331
     27 O          85.2060   98.0490   -0.9660 O.3     1  UNL1       -0.2176
     28 O          86.3490   94.5960   -0.4520 O.3     1  UNL1       -0.3256
     29 O          87.5860   93.1870    0.9920 O.3     1  UNL1       -0.3286
     30 O          90.3920   83.1400  -10.9570 O.3     1  UNL1       -0.2849
     31 O          92.3280   81.3290  -10.3180 O.2     1  UNL1       -0.1431
     32 O          85.4770   93.2340    2.9280 O.3     1  UNL1       -0.2149
     33 O          83.3640   95.1080    2.5830 O.3     1  UNL1       -0.2174
     34 O          83.3200   96.7070    0.4840 O.3     1  UNL1       -0.2176
@<TRIPOS>BOND
     1     2     1    1
     2     5     4    1
     3     6     5    1
     4     7     6    1
     5     8     7    1
     6     9     8   ar
     7    11    10    1
     8    12    11    1
     9    13    12    1
    10    14    13   ar
    11    15    14   ar
    12    16    15   ar
    13    17    16   ar
    14    18    17    1
    15    19     3    1
    16    20    19    1
    17    21    20    1
    18    21     2    1
    19    22    10    1
    20    22     9   ar
    21    23    18    2
    22    24    17   ar
    23    24    13   ar
    24    25    22   ar
    25    26    25   ar
    26    26     8   ar
    27    27     1    1
    28    28     3    1
    29    28     2    1
    30     3    29    1
    31    29     4    1
    32    30    16    1
    33    31    23    1
    34    19    32    1
    35    20    33    1
    36    21    34    1
