@<TRIPOS>MOLECULE
7RB5_NWA_A601
 10 9 0 0 0
SMALL
GASTEIGER

@<TRIPOS>ATOM
      1  N1        91.4630   80.3910   -8.9350 N.4   601  NWA601      0.3857
      2  C2        90.4990   81.4780   -9.0620 C.3   601  NWA601     -0.0732
      3  C3        90.5760   82.1510  -10.4360 C.3   601  NWA601     -0.0197
      4  C5        89.3230   83.6970  -12.0230 C.3   601  NWA601      0.1520
      5  O7        90.6180   83.9870  -12.4790 O.3   601  NWA601     -0.2232
      6  C6        88.6160   85.0410  -11.8600 C.3   601  NWA601      0.0355
      7  C8        91.2190   79.6680   -7.7060 C.3   601  NWA601     -0.0960
      8  C9        92.8170   80.9080   -8.8840 C.3   601  NWA601     -0.0960
      9  C10       91.3180   79.4670  -10.0430 C.3   601  NWA601     -0.0960
     10  C4        89.3270   83.0090  -10.6510 C.3   601  NWA601      0.0308
@<TRIPOS>BOND
     1     5     4    1
     2     4     6    1
     3     4    10    1
     4    10     3    1
     5     3     2    1
     6     9     1    1
     7     2     1    1
     8     1     8    1
     9     1     7    1
