@<TRIPOS>MOLECULE
7RB7_NWA_B601
 10 9 0 0 0
SMALL
GASTEIGER

@<TRIPOS>ATOM
      1  N1        91.4660   80.5790   -8.8740 N.4   601  NWA601      0.3857
      2  C2        90.6320   81.7670   -8.9300 C.3   601  NWA601     -0.0732
      3  C3        90.5280   82.2740  -10.3690 C.3   601  NWA601     -0.0197
      4  C5        89.2760   83.8040  -11.9100 C.3   601  NWA601      0.1520
      5  O7        90.5530   84.1800  -12.3470 O.3   601  NWA601     -0.2232
      6  C6        88.3780   85.0400  -11.8970 C.3   601  NWA601      0.0355
      7  C8        91.5080   80.0920   -7.5070 C.3   601  NWA601     -0.0960
      8  C9        92.8140   80.8980   -9.3110 C.3   601  NWA601     -0.0960
      9  C10       90.9120   79.5490   -9.7370 C.3   601  NWA601     -0.0960
     10  C4        89.3680   83.2620  -10.4820 C.3   601  NWA601      0.0308
@<TRIPOS>BOND
     1     5     4    1
     2     4     6    1
     3     4    10    1
     4    10     3    1
     5     3     2    1
     6     9     1    1
     7     8     1    1
     8     2     1    1
     9     1     7    1
