@<TRIPOS>MOLECULE
7RB7_3VI_B602
 19 20 0 0 0
SMALL
GASTEIGER

@<TRIPOS>ATOM
      1 C          88.6700   86.7710   -3.0910 C.2     1  UNL1        0.1453
      2 C          90.6310   90.5030    5.2230 C.2     1  UNL1        0.1453
      3 C          87.9310   88.9070   -2.2630 C.ar    1  UNL1        0.0777
      4 C          90.1800   88.1590   -1.8310 C.ar    1  UNL1        0.0777
      5 C          89.5310   89.9570    3.1520 C.ar    1  UNL1        0.0777
      6 C          91.0550   91.8220    3.2550 C.ar    1  UNL1        0.0777
      7 C          88.1820   90.0840   -1.5690 C.ar    1  UNL1        0.2959
      8 C          90.4420   89.3320   -1.1330 C.ar    1  UNL1        0.2959
      9 C          89.3030   90.2110    1.8050 C.ar    1  UNL1        0.2959
     10 C          90.8340   92.0840    1.9070 C.ar    1  UNL1        0.2959
     11 C          89.7160   91.5520   -0.2580 C.3     1  UNL1        0.6618
     12 C          88.9270   87.9460   -2.3940 C.ar    1  UNL1        0.0348
     13 C          90.4060   90.7610    3.8750 C.ar    1  UNL1        0.0348
     14 N          88.2530   86.9390   -4.3520 N.2     1  UNL1       -0.0278
     15 N          90.1460   91.4260    6.0640 N.2     1  UNL1       -0.0278
     16 N          89.4420   90.3010   -1.0000 N.ar    1  UNL1       -0.0874
     17 N          89.9550   91.2780    1.1770 N.ar    1  UNL1       -0.0874
     18 O          87.9700   85.7330   -5.1240 O.2     1  UNL1       -0.1431
     19 O          90.3580   91.1980    7.4910 O.2     1  UNL1       -0.1431
@<TRIPOS>UNITY_ATOM_ATTR
16 1
charge 1
17 1
charge 1
@<TRIPOS>BOND
     1     7     3   ar
     2     8     4   ar
     3     9     5   ar
     4    10     6   ar
     5    12     1    1
     6    12     4   ar
     7    12     3   ar
     8    13     6   ar
     9    13     5   ar
    10    13     2    1
    11    14     1    2
    12    15     2    2
    13    16    11    1
    14    16     8   ar
    15    16     7   ar
    16    17    11    1
    17    17    10   ar
    18    17     9   ar
    19    18    14    1
    20    19    15    1
