@<TRIPOS>MOLECULE
8AEN_LWL_A601
 16 16 0 0 0
SMALL
GASTEIGER

@<TRIPOS>ATOM
      1 C          88.7560   84.9880   -9.2430 C.2     1  UNL1        0.1387
      2 C          91.9240   79.6330   -7.1310 C.3     1  UNL1        0.1715
      3 C          92.1580   79.1260   -9.5990 C.3     1  UNL1        0.1715
      4 C          89.9580   79.6310   -8.4660 C.3     1  UNL1        0.1715
      5 C          91.7260   81.4660   -8.7700 C.3     1  UNL1        0.1990
      6 C          90.4680   82.1490   -9.3630 C.2     1  UNL1        0.3186
      7 C          87.5830   85.4580  -10.0050 C.ar    1  UNL1        0.1020
      8 C          86.7300   86.4650   -9.5460 C.ar    1  UNL1        0.0208
      9 C          85.6180   86.8310  -10.3540 C.ar    1  UNL1        0.0032
     10 C          85.3650   86.2140  -11.5870 C.ar    1  UNL1        0.0207
     11 C          86.2620   85.2180  -11.9640 C.ar    1  UNL1        0.0989
     12 N          91.4440   79.9800   -8.5100 N.4     1  UNL1        0.3176
     13 N          89.9510   83.1530   -8.5150 N.am    1  UNL1       -0.0741
     14 N          88.8590   83.7020   -9.1700 N.2     1  UNL1       -0.1528
     15 N          87.3340   84.8450  -11.2160 N.ar    1  UNL1       -0.2422
     16 O          90.1410   81.7280  -10.4570 O.2     1  UNL1       -0.2650
@<TRIPOS>UNITY_ATOM_ATTR
12 1
charge 1
@<TRIPOS>BOND
     1     6     5    1
     2     7     1    1
     3     8     7   ar
     4     9     8   ar
     5    10     9   ar
     6    11    10   ar
     7    12     5    1
     8    12     4    1
     9    12     3    1
    10    12     2    1
    11    13     6   am
    12    14    13    1
    13    14     1    2
    14    15    11   ar
    15    15     7   ar
    16    16     6    2
