@<TRIPOS>MOLECULE
8AEN_LWL_B601
 16 16 0 0 0
SMALL
GASTEIGER

@<TRIPOS>ATOM
      1 C          89.0080   84.7250   -9.9980 C.2     1  UNL1        0.1387
      2 C          90.1240   80.0840   -8.0470 C.3     1  UNL1        0.1715
      3 C          92.4830   80.4490   -7.5440 C.3     1  UNL1        0.1715
      4 C          91.8480   79.0160   -9.5270 C.3     1  UNL1        0.1715
      5 C          91.6400   81.4150   -9.6870 C.3     1  UNL1        0.1990
      6 C          90.3090   82.2140   -9.7090 C.2     1  UNL1        0.3186
      7 C          87.7390   85.4290  -10.3400 C.ar    1  UNL1        0.1020
      8 C          87.1760   86.3930   -9.4820 C.ar    1  UNL1        0.0208
      9 C          85.9780   87.0210   -9.8750 C.ar    1  UNL1        0.0032
     10 C          85.3530   86.6840  -11.0950 C.ar    1  UNL1        0.0207
     11 C          85.9760   85.7230  -11.8840 C.ar    1  UNL1        0.0989
     12 N          91.5060   80.2550   -8.7200 N.4     1  UNL1        0.3176
     13 N          90.2700   83.3060   -8.8250 N.am    1  UNL1       -0.0741
     14 N          89.0290   83.9210   -8.9910 N.2     1  UNL1       -0.1528
     15 N          87.1250   85.1090  -11.5400 N.ar    1  UNL1       -0.2422
     16 O          89.5010   81.7590  -10.4890 O.2     1  UNL1       -0.2650
@<TRIPOS>UNITY_ATOM_ATTR
12 1
charge 1
@<TRIPOS>BOND
     1     6     5    1
     2     7     1    1
     3     8     7   ar
     4     9     8   ar
     5    10     9   ar
     6    11    10   ar
     7    12     5    1
     8    12     4    1
     9    12     3    1
    10    12     2    1
    11    13     6   am
    12    14    13    1
    13    14     1    2
    14    15    11   ar
    15    15     7   ar
    16    16     6    2
