@<TRIPOS>MOLECULE
8AEV_LWU_A601
 27 29 0 0 0
SMALL
GASTEIGER

@<TRIPOS>ATOM
      1 C          89.8010   85.1500   -3.9900 C.3     1  UNL1        0.1590
      2 C          90.8220   82.6040   -6.1120 C.2     1  UNL1        0.3371
      3 C          91.7390   81.4300   -6.2330 C.3     1  UNL1        0.4111
      4 C          92.5180   81.1770   -8.5520 C.ar    1  UNL1        0.2905
      5 C          92.4400   80.5750   -9.7950 C.ar    1  UNL1        0.0758
      6 C          91.4770   79.5620   -9.9960 C.ar    1  UNL1        0.0126
      7 C          90.6060   79.1750   -8.9550 C.ar    1  UNL1        0.0758
      8 C          90.7000   79.8000   -7.7160 C.ar    1  UNL1        0.2905
      9 C          88.9780   86.3500   -3.6610 C.ar    1  UNL1        0.0816
     10 C          87.7800   86.6810   -4.3160 C.ar    1  UNL1        0.0387
     11 CA         87.0880   87.8400   -3.8600 C.ar    1  UNL1        0.1527
     12 C          85.7820   88.2510   -4.5060 C.3     1  UNL1        0.4656
     13 C          88.7100   88.2240   -2.2380 C.ar    1  UNL1        0.1618
     14 C          89.1760   89.1000   -1.1230 C.ar    1  UNL1        0.0358
     15 C          88.2970   90.0420   -0.5670 C.ar    1  UNL1        0.0030
     16 C          88.7220   90.8720    0.4780 C.ar    1  UNL1        0.0001
     17 C          90.0310   90.7620    0.9710 C.ar    1  UNL1        0.0000
     18 C          90.9090   89.8180    0.4170 C.ar    1  UNL1        0.0001
     19 C          90.4860   88.9910   -0.6280 C.ar    1  UNL1        0.0030
     20 N          91.6570   80.7770   -7.5290 N.ar    1  UNL1       -0.1513
     21 N          90.6440   83.3070   -5.0410 N.am    1  UNL1       -0.1052
     22 N          89.7170   84.4120   -5.0620 N.3     1  UNL1       -0.1018
     23 N          87.5380   88.6040   -2.8400 N.ar    1  UNL1       -0.2232
     24 N          89.4440   87.1160   -2.6000 N.ar    1  UNL1       -0.2294
     25 O          90.1670   82.8710   -7.2950 O.2     1  UNL1       -0.2643
     26 O          85.8200   87.9740   -5.8780 O.2     1  UNL1       -0.2599
     27 OXT        85.5630   89.6660   -4.3240 O.2     1  UNL1       -0.2599
@<TRIPOS>UNITY_ATOM_ATTR
20 1
charge 1
@<TRIPOS>BOND
     1     3     2    1
     2     5     4   ar
     3     6     5   ar
     4     7     6   ar
     5     8     7   ar
     6     9     1    1
     7    10     9   ar
     8    11    10   ar
     9    12    11    1
    10    14    13    1
    11    15    14   ar
    12    16    15   ar
    13    17    16   ar
    14    18    17   ar
    15    19    18   ar
    16    19    14   ar
    17    20     8   ar
    18    20     4   ar
    19    20     3    1
    20    21     2   am
    21    22    21    1
    22    22     1    1
    23    23    11   ar
    24    23    13   ar
    25    24     9   ar
    26    24    13   ar
    27    25     2    2
    28    12    26    1
    29    27    12    1
