@<TRIPOS>MOLECULE
8DT2_DEP_A601
 8 7 0 0 0
SMALL
GASTEIGER

@<TRIPOS>ATOM
      1 C          86.9270   84.9060  -12.3880 C.3     1  UNL1        0.1520
      2 C          86.2940   86.1480  -11.7830 C.3     1  UNL1        0.0352
      3 C          89.5880   83.5650   -9.2790 C.3     1  UNL1        0.1520
      4 C          89.2510   84.9990   -8.8840 C.3     1  UNL1        0.0352
      5 O          88.3070   85.0300  -12.2470 O.3     1  UNL1       -0.2864
      6 O          88.7670   83.1630  -10.3410 O.3     1  UNL1       -0.2864
      7 O          90.5580   83.9390  -11.9840 O.2     1  UNL1       -0.2453
      8 P          89.1300   83.6660  -11.8690 P.3     1  UNL1        0.4438
@<TRIPOS>BOND
     1     2     1    1
     2     4     3    1
     3     5     1    1
     4     6     3    1
     5     8     7    2
     6     8     5    1
     7     8     6    1
