@<TRIPOS>MOLECULE
8DT5_DEP_A601
 8 7 0 0 0
SMALL
GASTEIGER

@<TRIPOS>ATOM
      1 C          87.6230   85.5360  -12.4980 C.3     1  UNL1        0.1520
      2 C          86.2090   85.8980  -12.0910 C.3     1  UNL1        0.0352
      3 C          89.0530   83.1780   -9.3250 C.3     1  UNL1        0.1520
      4 C          90.1100   84.1700   -8.8460 C.3     1  UNL1        0.0352
      5 O          88.1030   84.7520  -11.4660 O.3     1  UNL1       -0.2864
      6 O          89.4240   82.6560  -10.5720 O.3     1  UNL1       -0.2864
      7 O          90.3950   84.2740  -12.3290 O.2     1  UNL1       -0.2453
      8 P          89.1760   83.6110  -11.8900 P.3     1  UNL1        0.4438
@<TRIPOS>BOND
     1     2     1    1
     2     4     3    1
     3     5     1    1
     4     6     3    1
     5     8     7    2
     6     8     5    1
     7     8     6    1
