@<TRIPOS>MOLECULE
9OMS_A1CD5_A601
 19 19 0 0 0
SMALL
GASTEIGER

@<TRIPOS>ATOM
      1  C2        88.3420   91.7290    1.1560 C.3   601  A1C601      0.0029
      2  C1        87.6280   91.3780   -0.1510 C.3   601  A1C601      0.0174
      3  C4        90.1020   90.0210    0.5150 C.3   601  A1C601      0.0721
      4  C8        91.7100   92.6740    2.3530 C.3   601  A1C601      0.0888
      5  C7        90.5390   91.6790    2.3910 C.3   601  A1C601      0.0202
      6  C11       92.2840   94.3810    4.0500 C.3   601  A1C601      0.1075
      7  C12       87.8640   86.0860   -4.4440 C.2   601  A1C601      0.2619
      8  C13       86.6280   86.7210   -4.9970 C.3   601  A1C601      0.2108
      9  C3        89.8500   91.4520    1.0350 C.3   601  A1C601      0.0175
     10  C40       89.4950   88.1860   -0.9370 C.3   601  A1C601      0.0739
     11  C43       90.3460   87.8150   -2.1660 C.3   601  A1C601      0.0407
     12  C46       89.7710   86.6090   -2.9210 C.3   601  A1C601      0.1166
     13  C6        87.8550   89.9010   -0.4640 C.3   601  A1C601      0.0721
     14  N10       88.5320   86.9320   -3.6160 N.am  601  A1C601     -0.2041
     15  N18       86.1600   87.7150   -4.3440 N.3   601  A1C601     -0.0378
     16  N5        89.2800   89.6000   -0.6240 N.3   601  A1C601     -0.2726
     17  N9        91.4340   93.8870    3.1130 N.3   601  A1C601     -0.2165
     18  O14       88.2190   84.9370   -4.7140 O.2   601  A1C601     -0.2717
     19  O19       85.0230   88.2200   -4.9500 O.3   601  A1C601     -0.0996
@<TRIPOS>BOND
     1     8     7    1
     2     8    15    1
     3    19    15    1
     4    18     7    2
     5     7    14   am
     6    14    12    1
     7    12    11    1
     8    11    10    1
     9    10    16    1
    10    16    13    1
    11    16     3    1
    12    13     2    1
    13     2     1    1
    14     3     9    1
    15     9     1    1
    16     9     5    1
    17     4     5    1
    18     4    17    1
    19    17     6    1
