@<TRIPOS>MOLECULE
9OMS_A1CD5_A601
 19 19 0 0 0
SMALL
GASTEIGER

@<TRIPOS>ATOM
      1  C2        88.4260   91.7230    1.1680 C.3   601  A1C601      0.0029
      2  C1        87.7090   91.3750   -0.1380 C.3   601  A1C601      0.0174
      3  C4        90.1810   90.0110    0.5220 C.3   601  A1C601      0.0721
      4  C8        91.7980   92.6560    2.3620 C.3   601  A1C601      0.0888
      5  C7        90.6250   91.6650    2.3990 C.3   601  A1C601      0.0202
      6  C11       92.3800   94.3600    4.0590 C.3   601  A1C601      0.1075
      7  C12       87.9240   86.0870   -4.4380 C.2   601  A1C601      0.2619
      8  C13       86.6900   86.7260   -4.9890 C.3   601  A1C601      0.2108
      9  C3        89.9330   91.4410    1.0450 C.3   601  A1C601      0.0175
     10  C40       89.5660   88.1780   -0.9300 C.3   601  A1C601      0.0739
     11  C43       90.4150   87.8070   -2.1620 C.3   601  A1C601      0.0407
     12  C46       89.8350   86.6030   -2.9170 C.3   601  A1C601      0.1166
     13  C6        87.9310   89.8970   -0.4540 C.3   601  A1C601      0.0721
     14  N10       88.5960   86.9300   -3.6100 N.am  601  A1C601     -0.2041
     15  N18       86.2250   87.7210   -4.3340 N.3   601  A1C601     -0.0378
     16  N5        89.3560   89.5930   -0.6160 N.3   601  A1C601     -0.2726
     17  N9        91.5260   93.8700    3.1230 N.3   601  A1C601     -0.2165
     18  O14       88.2760   84.9370   -4.7100 O.2   601  A1C601     -0.2717
     19  O19       85.0890   88.2290   -4.9370 O.3   601  A1C601     -0.0996
@<TRIPOS>BOND
     1     8     7    1
     2     8    15    1
     3    19    15    1
     4    18     7    2
     5     7    14   am
     6    14    12    1
     7    12    11    1
     8    11    10    1
     9    10    16    1
    10    16    13    1
    11    16     3    1
    12    13     2    1
    13     2     1    1
    14     3     9    1
    15     9     1    1
    16     9     5    1
    17     4     5    1
    18     4    17    1
    19    17     6    1
