9I54_A1IZV_R501
     RDKit          3D

 27 30  0  0  0  0  0  0  0  0999 V2000
  126.6050  121.0470  146.5150 C   0  0  0  0  0  0  0  0  0  0  0  0
  125.7710  121.6630  145.5940 C   0  0  0  0  0  0  0  0  0  0  0  0
  125.9160  123.0090  145.3370 C   0  0  0  0  0  0  0  0  0  0  0  0
  124.6770  120.8060  143.6240 C   0  0  0  0  0  0  0  0  0  0  0  0
  124.3150  120.5400  140.9890 C   0  0  0  0  0  0  0  0  0  0  0  0
  130.8780  125.0500  147.4750 C   0  0  0  0  0  0  0  0  0  0  0  0
  130.2990  123.4840  145.5890 C   0  0  0  0  0  0  0  0  0  0  0  0
  127.0180  124.5490  149.2290 C   0  0  0  0  0  0  0  0  0  0  0  0
  122.2470  119.6420  143.7840 C   0  0  0  0  0  0  0  0  0  0  0  0
  128.6730  124.0390  147.4370 C   0  0  0  0  0  0  0  0  0  0  0  0
  123.4580  120.2060  143.2600 C   0  0  0  0  0  0  0  0  0  0  0  0
  123.3490  120.1100  141.8770 C   0  0  0  0  0  0  0  0  0  0  0  0
  125.4500  121.1030  141.5300 C   0  0  0  0  0  0  0  0  0  0  0  0
  129.9020  124.1860  146.8540 C   0  0  0  0  0  0  0  0  0  0  0  0
  129.2460  125.5500  149.2400 C   0  0  0  0  0  0  0  0  0  0  0  0
  127.6680  123.1720  146.8180 C   0  0  0  0  0  0  0  0  0  0  0  0
  121.5220  119.2630  142.7340 C   0  0  0  0  0  0  0  0  0  0  0  0
  127.5640  121.8120  147.1270 C   0  0  0  0  0  0  0  0  0  0  0  0
  128.3910  121.2260  148.0200 F   0  0  0  0  0  0  0  0  0  0  0  0
  125.6510  121.2440  142.8450 N   0  0  0  0  0  0  0  0  0  0  0  0
  130.4700  125.6730  148.6320 N   0  0  0  0  0  0  0  0  0  0  0  0
  128.3380  124.7100  148.6160 N   0  0  0  0  0  0  0  0  0  0  0  0
  126.8500  123.7580  145.9290 N   0  0  0  0  0  0  0  0  0  0  0  0
  128.9730  126.1450  150.2700 O   0  0  0  0  0  0  0  0  0  0  0  0
  132.0080  125.2430  147.0310 O   0  0  0  0  0  0  0  0  0  0  0  0
  122.1540  119.5260  141.5350 O   0  0  0  0  0  0  0  0  0  0  0  0
  124.7840  120.8970  144.9780 O   0  0  0  0  0  0  0  0  0  0  0  0
  2  1  2  0
  3  2  1  0
 11  9  1  0
 11  4  2  0
 12  5  2  0
 12 11  1  0
 13  5  1  0
 14  7  1  0
 14 10  2  0
 14  6  1  0
 16 10  1  0
 17  9  2  0
 18 16  2  0
 18  1  1  0
 19 18  1  0
 20  4  1  0
 20 13  2  0
 21 15  1  0
 21  6  1  0
 22 10  1  0
 22  8  1  0
 22 15  1  0
 23 16  1  0
 23  3  2  0
 24 15  2  0
 25  6  2  0
 26 17  1  0
 26 12  1  0
 27  4  1  0
 27  2  1  0
M  END
>  <_TriposChargeType>  (1) 
GASTEIGER

$$$$
