7CKX_G3O_R501
     RDKit          3D

 24 28  0  0  0  0  0  0  0  0999 V2000
  125.8390  121.5910  142.0030 C   0  0  0  0  0  0  0  0  0  0  0  0
  127.7260  121.6700  140.4780 N   0  0  0  0  0  0  0  0  0  0  0  0
  126.7280  122.6970  145.5790 C   0  0  2  0  0  0  0  0  0  0  0  0
  126.8050  123.0820  148.0250 C   0  0  0  0  0  0  0  0  0  0  0  0
  128.7460  122.0390  146.8520 C   0  0  0  0  0  0  0  0  0  0  0  0
  128.2440  124.5000  146.4820 C   0  0  0  0  0  0  0  0  0  0  0  0
  127.3200  124.0850  145.3270 C   0  0  0  0  0  0  0  0  0  0  0  0
  127.4170  124.4800  147.7820 C   0  0  0  0  0  0  0  0  0  0  0  0
  123.1640  119.6220  143.8930 C   0  0  0  0  0  0  0  0  0  0  0  0
  122.4230  119.0820  142.8690 C   0  0  0  0  0  0  0  0  0  0  0  0
  122.7640  119.3370  141.5760 C   0  0  0  0  0  0  0  0  0  0  0  0
  123.8480  120.1320  141.2940 C   0  0  0  0  0  0  0  0  0  0  0  0
  124.6260  120.6990  142.3670 C   0  0  0  0  0  0  0  0  0  0  0  0
  124.3000  120.4570  143.5950 C   0  0  0  0  0  0  0  0  0  0  0  0
  125.0670  121.0160  144.7180 C   0  0  0  0  0  0  0  0  0  0  0  0
  125.7720  122.2630  144.3550 C   0  0  0  0  0  0  0  0  0  0  0  0
  126.7920  120.7880  141.1730 C   0  0  0  0  0  0  0  0  0  0  0  0
  125.9380  122.7950  146.8510 C   0  0  0  0  0  0  0  0  0  0  0  0
  127.9520  122.1320  148.1360 C   0  0  0  0  0  0  0  0  0  0  0  0
  127.8980  121.7440  145.6840 C   0  0  0  0  0  0  0  0  0  0  0  0
  129.3530  123.4360  146.6060 C   0  0  0  0  0  0  0  0  0  0  0  0
  126.5820  122.1180  143.1680 O   0  0  0  0  0  0  0  0  0  0  0  0
  121.3140  118.2680  143.1560 O   0  0  0  0  0  0  0  0  0  0  0  0
  122.8150  119.3610  145.2260 O   0  0  0  0  0  0  0  0  0  0  0  0
  6  7  1  0
  3  7  1  0
  8  6  1  0
  4  8  1  0
 10  9  1  0
 11 10  2  0
 12 11  1  0
 13 12  2  0
 13  1  1  0
 14  9  2  0
 14 13  1  0
 15 14  1  0
 16 15  1  0
  3 16  1  6
 17  2  1  0
  1 17  1  0
 18  3  1  0
 18  4  1  0
  5 19  1  0
 19  4  1  0
 20  5  1  0
 20  3  1  0
 21  6  1  0
 21  5  1  0
 22 16  1  0
 22  1  1  0
 23 10  1  0
 24  9  1  0
M  CHG  1   2   1
M  END
>  <_TriposChargeType>  (1) 
GASTEIGER

$$$$
