7X2C_G3C_F503
     RDKit          3D

 21 23  0  0  0  0  0  0  0  0999 V2000
  127.8160  121.6730  147.7630 C   0  0  0  0  0  0  0  0  0  0  0  0
  126.4140  123.5830  147.7730 C   0  0  0  0  0  0  0  0  0  0  0  0
  127.7440  121.6470  143.3380 C   0  0  0  0  0  0  0  0  0  0  0  0
  127.0940  121.0530  141.0590 C   0  0  0  0  0  0  0  0  0  0  0  0
  123.5880  119.9780  142.1570 C   0  0  0  0  0  0  0  0  0  0  0  0
  122.7520  119.4280  143.1710 C   0  0  0  0  0  0  0  0  0  0  0  0
  123.1270  119.7610  144.5230 C   0  0  0  0  0  0  0  0  0  0  0  0
  124.2750  120.5910  144.6760 C   0  0  0  0  0  0  0  0  0  0  0  0
  125.1050  121.1320  143.6630 C   0  0  0  0  0  0  0  0  0  0  0  0
  126.3920  122.0860  144.0600 C   0  0  0  0  0  0  0  0  0  0  0  0
  126.6940  122.3260  145.6460 C   0  0  0  0  0  0  0  0  0  0  0  0
  127.5360  121.4970  146.4110 C   0  0  0  0  0  0  0  0  0  0  0  0
  127.2710  122.7260  148.5200 C   0  0  0  0  0  0  0  0  0  0  0  0
  126.1640  123.3680  146.4270 C   0  0  0  0  0  0  0  0  0  0  0  0
  125.5730  121.3500  141.1030 C   0  0  0  0  0  0  0  0  0  0  0  0
  124.7440  120.8100  142.3110 C   0  0  0  0  0  0  0  0  0  0  0  0
  127.8570  121.9990  141.9070 N   0  0  0  0  0  0  0  0  0  0  0  0
  121.6730  118.6430  142.9410 O   0  0  0  0  0  0  0  0  0  0  0  0
  122.3940  119.2860  145.5650 O   0  0  0  0  0  0  0  0  0  0  0  0
  127.5300  122.9190  149.8490 O   0  0  0  0  0  0  0  0  0  0  0  0
  123.0700  119.5250  140.4990 Cl  0  0  0  0  0  0  0  0  0  0  0  0
  6  5  1  0
  7  6  2  0
  8  7  1  0
  9  8  2  0
 10  9  1  0
 10  3  1  0
 10 11  1  0
 12 11  1  0
 12  1  2  0
 13  2  2  0
 13  1  1  0
 14 11  2  0
 14  2  1  0
 15  4  1  0
 16  9  1  0
 16  5  2  0
 16 15  1  0
 17  4  1  0
 17  3  1  0
 18  6  1  0
 19  7  1  0
 20 13  1  0
 21  5  1  0
M  CHG  1  17   1
M  END
>  <_TriposChargeType>  (1) 
GASTEIGER

$$$$
