8F0P_X7L_A1610
     RDKit          3D

 37 41  0  0  0  0  0  0  0  0999 V2000
   90.6970  134.9610  138.7930 C   0  0  0  0  0  0  0  0  0  0  0  0
   90.5200  136.5000  136.4970 C   0  0  0  0  0  0  0  0  0  0  0  0
   89.4660  136.4800  137.4190 C   0  0  0  0  0  0  0  0  0  0  0  0
   91.6630  135.7340  136.7320 C   0  0  0  0  0  0  0  0  0  0  0  0
   91.7520  134.9770  137.8810 C   0  0  0  0  0  0  0  0  0  0  0  0
   87.2690  138.7870  140.6190 C   0  0  0  0  0  0  0  0  0  0  0  0
   86.7010  137.7270  142.7800 C   0  0  0  0  0  0  0  0  0  0  0  0
   86.3980  136.3690  140.6750 C   0  0  0  0  0  0  0  0  0  0  0  0
   84.9120  136.7200  140.5260 C   0  0  0  0  0  0  0  0  0  0  0  0
   84.2600  136.0680  139.3040 C   0  0  0  0  0  0  0  0  0  0  0  0
   84.8820  134.7190  138.9680 C   0  0  0  0  0  0  0  0  0  0  0  0
   86.3800  134.7990  138.6570 C   0  0  0  0  0  0  0  0  0  0  0  0
   87.0890  135.9860  139.3300 C   0  0  0  0  0  0  0  0  0  0  0  0
   89.5290  135.7120  138.5870 C   0  0  0  0  0  0  0  0  0  0  0  0
   92.1780  133.6040  134.1000 C   0  0  0  0  0  0  0  0  0  0  0  0
   91.5450  131.8340  132.9520 C   0  0  0  0  0  0  0  0  0  0  0  0
   91.8790  131.2120  134.1540 C   0  0  0  0  0  0  0  0  0  0  0  0
   91.7570  129.8270  134.3250 C   0  0  0  0  0  0  0  0  0  0  0  0
   91.2880  129.0620  133.2600 C   0  0  0  0  0  0  0  0  0  0  0  0
   90.9600  126.8200  132.5060 C   0  0  0  0  0  0  0  0  0  0  0  0
   91.2580  125.4230  133.0360 C   0  0  0  0  0  0  0  0  0  0  0  0
   90.7390  125.1660  134.4470 C   0  0  0  0  0  0  0  0  0  0  0  0
   90.7640  123.6430  134.5570 C   0  0  0  0  0  0  0  0  0  0  0  0
   90.6730  123.1020  133.1310 C   0  0  0  0  0  0  0  0  0  0  0  0
   90.5980  124.3190  132.2210 C   0  0  0  0  0  0  0  0  0  0  0  0
   90.9530  129.6600  132.0490 C   0  0  0  0  0  0  0  0  0  0  0  0
   91.0730  131.0480  131.8860 C   0  0  0  0  0  0  0  0  0  0  0  0
   92.8310  134.2300  138.1430 F   0  0  0  0  0  0  0  0  0  0  0  0
   87.1520  137.4980  141.3700 N   0  0  0  0  0  0  0  0  0  0  0  0
   88.5210  135.6570  139.5370 N   0  0  0  0  0  0  0  0  0  0  0  0
   92.4010  135.0120  134.2230 N   0  0  0  0  0  0  0  0  0  0  0  0
   91.7170  133.2040  132.9400 N   0  0  0  0  0  0  0  0  0  0  0  0
   94.1030  134.9700  136.0860 O   0  0  0  0  0  0  0  0  0  0  0  0
   93.2330  137.1470  135.2360 O   0  0  0  0  0  0  0  0  0  0  0  0
   91.2300  127.7340  133.5660 O   0  0  0  0  0  0  0  0  0  0  0  0
   92.9880  135.7550  135.5830 S   0  0  2  0  0  0  0  0  0  0  0  0
   92.4170  132.3960  135.2710 S   0  0  0  0  0  0  0  0  0  0  0  0
  3  2  1  0
  4  2  2  0
  5  4  1  0
  5  1  2  0
  9  8  1  0
 10  9  1  0
 11 10  1  0
 12 11  1  0
 13 12  1  0
 13  8  1  0
 14  1  1  0
 14  3  2  0
 17 16  1  0
 18 17  2  0
 19 18  1  0
 21 20  1  0
 22 21  1  0
 23 22  1  0
 24 23  1  0
 25 24  1  0
 25 21  1  0
 26 19  2  0
 27 26  1  0
 27 16  2  0
 28  5  1  0
  8 29  1  0
 29  7  1  0
 29  6  1  0
 13 30  1  0
 30 14  1  0
 31 15  1  0
 32 16  1  0
 32 15  2  0
 35 20  1  0
 35 19  1  0
 36 31  1  6
 36  4  1  0
 36 33  2  0
 36 34  2  0
 37 17  1  0
 37 15  1  0
M  END
>  <_TriposChargeType>  (1) 
GASTEIGER

$$$$
