@<TRIPOS>MOLECULE
3EML_ZMA_A401
 25 28 0 0 0
SMALL
GASTEIGER

@<TRIPOS>ATOM
      1 C           1.2790  102.9260   54.9330 C.ar    1  UNL1       -0.0009
      2 C           0.6970  104.1870   54.9350 C.ar    1  UNL1        0.0417
      3 C          -0.6090  104.3490   55.3810 C.ar    1  UNL1        0.1957
      4 O          -1.1850  105.5790   55.3860 O.3     1  UNL1       -0.2866
      5 C          -1.3320  103.2480   55.8230 C.ar    1  UNL1        0.0417
      6 C          -0.7510  101.9880   55.8240 C.ar    1  UNL1       -0.0009
      7 C           0.5560  101.8270   55.3830 C.ar    1  UNL1       -0.0202
      8 C           1.1920  100.4370   55.3690 C.3     1  UNL1        0.0498
      9 C           1.9410  100.2320   54.0560 C.3     1  UNL1        0.1200
     10 N           2.4850   98.8710   53.9750 N.pl3   1  UNL1       -0.2034
     11 C           1.6900   97.9800   53.3920 C.ar    1  UNL1        0.2415
     12 N           2.0690   96.7040   53.2210 N.ar    1  UNL1       -0.1757
     13 N           0.4990   98.4170   52.9490 N.ar    1  UNL1       -0.1769
     14 C          -0.3620   97.5930   52.3430 C.ar    1  UNL1        0.2627
     15 N          -1.5410   98.0470   51.9230 N.pl3   1  UNL1       -0.0858
     16 N          -0.0010   96.2610   52.1570 N.ar    1  UNL1       -0.1614
     17 N          -0.5810   95.3050   51.6410 N.ar    1  UNL1       -0.1374
     18 C           1.2450   95.8340   52.6150 C.ar    1  UNL1        0.2594
     19 N           1.3360   94.5440   52.3160 N.ar    1  UNL1       -0.1861
     20 C           0.1950   94.2210   51.7060 C.ar    1  UNL1        0.2196
     21 C          -0.1520   92.9660   51.2230 C.ar    1  UNL1        0.1828
     22 C           0.5580   91.8420   51.2320 C.ar    1  UNL1        0.0440
     23 C          -0.1760   90.8870   50.6630 C.ar    1  UNL1        0.0439
     24 C          -1.3500   91.3980   50.2920 C.ar    1  UNL1        0.1798
     25 O          -1.3560   92.7210   50.6390 O.2     1  UNL1       -0.4472
@<TRIPOS>BOND
     1     2     1   ar
     2     3     2   ar
     3     4     3    1
     4     5     3   ar
     5     6     5   ar
     6     7     6   ar
     7     7     1   ar
     8     8     7    1
     9     9     8    1
    10    10     9    1
    11    11    10    1
    12    12    11   ar
    13    13    11   ar
    14    14    13   ar
    15    15    14    1
    16    16    14   ar
    17    17    16   ar
    18    18    16   ar
    19    18    12   ar
    20    19    18   ar
    21    20    19   ar
    22    20    17   ar
    23    21    20    1
    24    22    21   ar
    25    23    22   ar
    26    24    23   ar
    27    25    24   ar
    28    25    21   ar
