@<TRIPOS>MOLECULE
3PWH_ZMA_A401
 25 28 0 0 0
SMALL
GASTEIGER

@<TRIPOS>ATOM
      1 C           3.4750   99.5040   58.6000 C.ar    1  UNL1       -0.0009
      2 C           4.2380   98.5880   59.3290 C.ar    1  UNL1        0.0417
      3 C           5.2040   97.8200   58.6840 C.ar    1  UNL1        0.1957
      4 O           5.9270   96.9360   59.4350 O.3     1  UNL1       -0.2866
      5 C           5.4220   97.9540   57.3180 C.ar    1  UNL1        0.0417
      6 C           4.6610   98.8710   56.5890 C.ar    1  UNL1       -0.0009
      7 C           3.6820   99.6540   57.2220 C.ar    1  UNL1       -0.0202
      8 C           2.8630  100.6350   56.4240 C.3     1  UNL1        0.0498
      9 C           3.0090  100.3770   54.9220 C.3     1  UNL1        0.1200
     10 N           1.7450  100.5410   54.2240 N.pl3   1  UNL1       -0.2034
     11 C           0.9980   99.5210   53.7080 C.ar    1  UNL1        0.2415
     12 N           1.5530   98.2720   53.6100 N.ar    1  UNL1       -0.1757
     13 N          -0.2710   99.8920   53.3300 N.ar    1  UNL1       -0.1769
     14 C          -1.1040   98.9650   52.8020 C.ar    1  UNL1        0.2627
     15 N          -2.3830   99.2220   52.3930 N.pl3   1  UNL1       -0.0858
     16 N          -0.5380   97.6280   52.6870 N.ar    1  UNL1       -0.1614
     17 N          -1.0700   96.4090   52.1990 N.ar    1  UNL1       -0.1374
     18 C           0.7400   97.3290   53.0850 C.ar    1  UNL1        0.2594
     19 N           1.0300   95.9710   52.8640 N.ar    1  UNL1       -0.1861
     20 C          -0.0840   95.4400   52.3280 C.ar    1  UNL1        0.2196
     21 C          -0.2650   94.0310   51.9160 C.ar    1  UNL1        0.1828
     22 C           0.7290   93.0750   51.8350 C.ar    1  UNL1        0.0440
     23 C           0.1120   91.8760   51.3970 C.ar    1  UNL1        0.0439
     24 C          -1.2220   92.1690   51.2320 C.ar    1  UNL1        0.1798
     25 O          -1.4590   93.4680   51.5410 O.2     1  UNL1       -0.4472
@<TRIPOS>BOND
     1     2     1   ar
     2     3     2   ar
     3     4     3    1
     4     5     3   ar
     5     6     5   ar
     6     7     6   ar
     7     7     1   ar
     8     8     7    1
     9     9     8    1
    10    10     9    1
    11    11    10    1
    12    12    11   ar
    13    13    11   ar
    14    14    13   ar
    15    15    14    1
    16    16    14   ar
    17    17    16   ar
    18    18    16   ar
    19    18    12   ar
    20    19    18   ar
    21    20    19   ar
    22    20    17   ar
    23    21    20    1
    24    22    21   ar
    25    23    22   ar
    26    24    23   ar
    27    25    24   ar
    28    25    21   ar
