@<TRIPOS>MOLECULE
3QAK_UKA_A1200
 57 63 0 0 0
SMALL
GASTEIGER

@<TRIPOS>ATOM
      1 C           2.7900   92.8820   53.2210 C.3     1  UNL1        0.2342
      2 N           1.5900   94.4790   51.7290 N.ar    1  UNL1       -0.2693
      3 O           2.8690   92.5630   50.9070 O.3     1  UNL1       -0.3238
      4 C           2.1400   91.5440   52.8990 C.3     1  UNL1        0.2225
      5 N           1.7280   89.5110   49.9730 N.am    1  UNL1       -0.2033
      6 O           2.5730   90.4730   53.7260 O.3     1  UNL1       -0.2171
      7 C           2.5430   91.2770   51.4690 C.3     1  UNL1        0.2273
      8 N          -0.4010   95.2490   51.1920 N.ar    1  UNL1       -0.2193
      9 O           4.1360   92.7560   53.6920 O.3     1  UNL1       -0.2155
     10 C           2.8050   93.6070   51.8880 C.3     1  UNL1        0.2413
     11 N           0.8520   98.2210   52.9510 N.ar    1  UNL1       -0.2046
     12 O           0.2930   90.9850   50.8840 O.2     1  UNL1       -0.2706
     13 C           1.4300   90.5750   50.7460 C.2     1  UNL1        0.2713
     14 N           2.3730   96.4730   52.8860 N.ar    1  UNL1       -0.2035
     15 O           4.1700   98.2500   54.1930 O.2     1  UNL1       -0.2650
     16 C           0.7100   88.7660   49.2340 C.3     1  UNL1        0.1153
     17 N          -1.2280   98.1190   51.9470 N.pl3   1  UNL1       -0.2182
     18 O           2.0820  103.4860   56.6820 O.2     1  UNL1       -0.2492
     19 C           1.0910   87.3430   48.9000 C.3     1  UNL1        0.0253
     20 N           2.3890   99.5830   54.6840 N.am    1  UNL1       -0.1972
     21 C           0.4320   94.1900   51.1160 C.ar    1  UNL1        0.1816
     22 N           2.3810  102.6520   54.6660 N.am    1  UNL1       -0.1853
     23 C           0.2550   96.2200   51.8640 C.ar    1  UNL1        0.1500
     24 N           0.8360  104.2840   55.0490 N.am    1  UNL1       -0.1889
     25 C           1.4970   95.7190   52.1950 C.ar    1  UNL1        0.1691
     26 N          -2.4080  106.4970   56.1890 N.pl3   1  UNL1       -0.2931
     27 C          -0.0640   97.5170   52.2720 C.ar    1  UNL1        0.1701
     28 N          -3.9550  107.3250   54.5380 N.ar    1  UNL1       -0.2292
     29 C           2.0590   97.7140   53.2550 C.ar    1  UNL1        0.2211
     30 C          -1.3490   99.5650   52.0630 C.3     1  UNL1        0.1225
     31 C          -2.3690   99.9670   53.1210 C.3     1  UNL1        0.0662
     32 C          -2.8320  101.3640   52.9390 C.ar    1  UNL1       -0.0167
     33 C          -1.8080   99.7290   54.4570 C.ar    1  UNL1       -0.0167
     34 C          -4.1170  101.6700   53.3370 C.ar    1  UNL1       -0.0039
     35 C          -4.6120  102.9460   53.1730 C.ar    1  UNL1       -0.0003
     36 C          -3.8360  103.9400   52.5990 C.ar    1  UNL1       -0.0000
     37 C          -2.5470  103.6530   52.1940 C.ar    1  UNL1       -0.0003
     38 C          -2.0440  102.3600   52.3650 C.ar    1  UNL1       -0.0039
     39 C          -1.0270  100.6760   55.0940 C.ar    1  UNL1       -0.0039
     40 C          -0.5050  100.3960   56.3510 C.ar    1  UNL1       -0.0003
     41 C          -0.7720   99.1810   56.9650 C.ar    1  UNL1       -0.0000
     42 C          -1.5640   98.2270   56.3180 C.ar    1  UNL1       -0.0003
     43 C          -2.0770   98.5060   55.0610 C.ar    1  UNL1       -0.0039
     44 C           2.9950   98.5580   54.0630 C.2     1  UNL1        0.3009
     45 C           2.9960  100.4460   55.6750 C.3     1  UNL1        0.1390
     46 C           3.4480  101.7420   55.0470 C.3     1  UNL1        0.1402
     47 C           1.7820  103.4780   55.5150 C.2     1  UNL1        0.3392
     48 C           0.1060  105.2510   55.8700 C.3     1  UNL1        0.1004
     49 C          -1.0150  104.5760   56.6580 C.3     1  UNL1        0.0432
     50 C          -2.0130  105.5650   57.2530 C.3     1  UNL1        0.0939
     51 C          -1.3250  107.3300   55.6750 C.3     1  UNL1        0.0939
     52 C          -0.4350  106.3430   54.9390 C.3     1  UNL1        0.0432
     53 C          -4.8120  105.8910   56.2210 C.ar    1  UNL1        0.0343
     54 C          -6.0830  105.9820   55.6420 C.ar    1  UNL1        0.0045
     55 C          -6.2600  106.7600   54.5000 C.ar    1  UNL1        0.0208
     56 C          -5.1610  107.4340   53.9610 C.ar    1  UNL1        0.1003
     57 C          -3.7270  106.5760   55.6550 C.ar    1  UNL1        0.1317
@<TRIPOS>BOND
     1     4     1    1
     2     4     6    1
     3     7     4    1
     4     7     3    1
     5     1     9    1
     6    10     3    1
     7    10     2    1
     8    10     1    1
     9    13    12    2
    10     7    13    1
    11    13     5   am
    12    16     5    1
    13    19    16    1
    14    21     8   ar
    15    21     2   ar
    16    23     8   ar
    17    25    23   ar
    18    25    14   ar
    19    25     2   ar
    20    27    23   ar
    21    27    17    1
    22    27    11   ar
    23    29    14   ar
    24    29    11   ar
    25    30    17    1
    26    31    30    1
    27    32    31    1
    28    33    31    1
    29    34    32   ar
    30    35    34   ar
    31    36    35   ar
    32    37    36   ar
    33    38    32   ar
    34    38    37   ar
    35    39    33   ar
    36    40    39   ar
    37    41    40   ar
    38    42    41   ar
    39    43    33   ar
    40    43    42   ar
    41    44    29    1
    42    44    15    2
    43    44    20   am
    44    45    20    1
    45    46    45    1
    46    46    22    1
    47    47    22   am
    48    47    18    2
    49    47    24   am
    50    48    24    1
    51    49    48    1
    52    50    49    1
    53    50    26    1
    54    51    26    1
    55    52    51    1
    56    52    48    1
    57    54    53   ar
    58    55    54   ar
    59    56    55   ar
    60    56    28   ar
    61    57    53   ar
    62    57    28   ar
    63    57    26    1
