@<TRIPOS>MOLECULE
3QAK_UKA_A1200
 57 63 0 0 0
SMALL
GASTEIGER

@<TRIPOS>ATOM
      1 C           2.4220   92.4160   53.2520 C.3     1  UNL1        0.2342
      2 N           1.2970   94.0900   51.7860 N.ar    1  UNL1       -0.2693
      3 O           2.4940   92.1340   50.9330 O.3     1  UNL1       -0.3238
      4 C           1.7140   91.1130   52.9050 C.3     1  UNL1        0.2225
      5 N           1.2230   89.1530   49.9420 N.am    1  UNL1       -0.2033
      6 O           2.0980   90.0100   53.7140 O.3     1  UNL1       -0.2171
      7 C           2.1100   90.8540   51.4710 C.3     1  UNL1        0.2273
      8 N          -0.6570   94.9560   51.2580 N.ar    1  UNL1       -0.2193
      9 O           3.7590   92.2230   53.7230 O.3     1  UNL1       -0.2155
     10 C           2.4720   93.1630   51.9320 C.3     1  UNL1        0.2413
     11 N           0.7200   97.8390   53.0730 N.ar    1  UNL1       -0.2046
     12 O          -0.1500   90.6720   50.8760 O.2     1  UNL1       -0.2706
     13 C           0.9690   90.2150   50.7330 C.2     1  UNL1        0.2713
     14 N           2.1630   96.0270   52.9800 N.ar    1  UNL1       -0.2035
     15 O           4.0330   97.7010   54.3230 O.2     1  UNL1       -0.2650
     16 C           0.1750   88.4660   49.1870 C.3     1  UNL1        0.1153
     17 N          -1.3590   97.8460   52.0630 N.pl3   1  UNL1       -0.2182
     18 O           2.1680  102.9770   56.9000 O.2     1  UNL1       -0.2492
     19 C           0.4940   87.0340   48.8290 C.3     1  UNL1        0.0253
     20 N           2.3090   99.1010   54.8340 N.am    1  UNL1       -0.1972
     21 C           0.1290   93.8630   51.1660 C.ar    1  UNL1        0.1816
     22 N           2.4360  102.1670   54.8700 N.am    1  UNL1       -0.1853
     23 C           0.0390   95.8850   51.9490 C.ar    1  UNL1        0.1500
     24 N           0.9630  103.8580   55.2790 N.am    1  UNL1       -0.1889
     25 C           1.2570   95.3240   52.2740 C.ar    1  UNL1        0.1691
     26 N          -2.1840  106.1910   56.4510 N.pl3   1  UNL1       -0.2931
     27 C          -0.2240   97.1880   52.3790 C.ar    1  UNL1        0.1701
     28 N          -3.6890  107.1150   54.8110 N.ar    1  UNL1       -0.2292
     29 C           1.9030   97.2740   53.3700 C.ar    1  UNL1        0.2211
     30 C          -1.4180   99.2930   52.2050 C.3     1  UNL1        0.1225
     31 C          -2.4220   99.7210   53.2670 C.3     1  UNL1        0.0662
     32 C          -2.8230  101.1400   53.1090 C.ar    1  UNL1       -0.0167
     33 C          -1.8760   99.4350   54.6000 C.ar    1  UNL1       -0.0167
     34 C          -4.0950  101.4940   53.5090 C.ar    1  UNL1       -0.0039
     35 C          -4.5330  102.7940   53.3670 C.ar    1  UNL1       -0.0003
     36 C          -3.7120  103.7630   52.8130 C.ar    1  UNL1       -0.0000
     37 C          -2.4360  103.4270   52.4050 C.ar    1  UNL1       -0.0003
     38 C          -1.9910  102.1100   52.5550 C.ar    1  UNL1       -0.0039
     39 C          -1.0570  100.3350   55.2550 C.ar    1  UNL1       -0.0039
     40 C          -0.5510  100.0100   56.5080 C.ar    1  UNL1       -0.0003
     41 C          -0.8720   98.7980   57.1000 C.ar    1  UNL1       -0.0000
     42 C          -1.7030   97.8910   56.4340 C.ar    1  UNL1       -0.0003
     43 C          -2.2010   98.2140   55.1810 C.ar    1  UNL1       -0.0039
     44 C           2.8720   98.0610   54.1960 C.2     1  UNL1        0.3009
     45 C           2.9510   99.9190   55.8410 C.3     1  UNL1        0.1390
     46 C           3.4620  101.2050   55.2370 C.3     1  UNL1        0.1402
     47 C           1.8720  103.0040   55.7320 C.2     1  UNL1        0.3392
     48 C           0.2730  104.8410   56.1150 C.3     1  UNL1        0.1004
     49 C          -0.8780  104.2020   56.8880 C.3     1  UNL1        0.0432
     50 C          -1.8330  105.2240   57.4990 C.3     1  UNL1        0.0939
     51 C          -1.0640  106.9850   55.9540 C.3     1  UNL1        0.0939
     52 C          -0.2160  105.9730   55.2030 C.3     1  UNL1        0.0432
     53 C          -4.6130  105.6910   56.4670 C.ar    1  UNL1        0.0343
     54 C          -5.8760  105.8470   55.8870 C.ar    1  UNL1        0.0045
     55 C          -6.0160  106.6520   54.7580 C.ar    1  UNL1        0.0208
     56 C          -4.8870  107.2870   54.2340 C.ar    1  UNL1        0.1003
     57 C          -3.4970  106.3370   55.9160 C.ar    1  UNL1        0.1317
@<TRIPOS>BOND
     1     4     1    1
     2     4     6    1
     3     7     4    1
     4     7     3    1
     5     1     9    1
     6    10     3    1
     7    10     1    1
     8    10     2    1
     9    13    12    2
    10     7    13    1
    11    13     5   am
    12    16     5    1
    13    19    16    1
    14    21     8   ar
    15    21     2   ar
    16    23     8   ar
    17    25    23   ar
    18    25    14   ar
    19    25     2   ar
    20    27    23   ar
    21    27    17    1
    22    27    11   ar
    23    29    14   ar
    24    29    11   ar
    25    30    17    1
    26    31    30    1
    27    32    31    1
    28    33    31    1
    29    34    32   ar
    30    35    34   ar
    31    36    35   ar
    32    37    36   ar
    33    38    37   ar
    34    38    32   ar
    35    39    33   ar
    36    40    39   ar
    37    41    40   ar
    38    42    41   ar
    39    43    42   ar
    40    43    33   ar
    41    44    29    1
    42    44    15    2
    43    44    20   am
    44    45    20    1
    45    46    45    1
    46    46    22    1
    47    47    22   am
    48    47    18    2
    49    47    24   am
    50    48    24    1
    51    49    48    1
    52    50    49    1
    53    50    26    1
    54    51    26    1
    55    52    51    1
    56    52    48    1
    57    54    53   ar
    58    55    54   ar
    59    56    55   ar
    60    56    28   ar
    61    57    53   ar
    62    57    28   ar
    63    57    26    1
