@<TRIPOS>MOLECULE
3REY_XAC_A999
 31 33 0 0 0
SMALL
GASTEIGER

@<TRIPOS>ATOM
      1 C          -0.4980   96.7780   51.8410 C.ar    1  UNL1        0.2850
      2 N           2.1440   95.7820   51.9000 N.ar    1  UNL1       -0.2648
      3 O          -1.6400   97.2550   51.8630 O.2     1  UNL1       -0.2651
      4 C           1.2250   95.2770   51.0060 C.ar    1  UNL1        0.3349
      5 N          -0.0710   95.7660   51.0260 N.ar    1  UNL1       -0.2474
      6 O           1.5590   94.3870   50.2090 O.2     1  UNL1       -0.2461
      7 C           1.6160   98.3330   54.3360 C.ar    1  UNL1        0.1641
      8 N           2.5030   97.4760   53.7910 N.ar    1  UNL1       -0.2077
      9 O           2.6580  101.6970   58.8080 O.3     1  UNL1       -0.4656
     10 C           1.7760   96.8140   52.7980 C.ar    1  UNL1        0.1714
     11 N           0.4120   98.2400   53.7330 N.ar    1  UNL1       -0.2187
     12 O           3.7300  103.5510   60.8760 O.2     1  UNL1       -0.2693
     13 C           0.5160   97.2730   52.7510 C.ar    1  UNL1        0.1730
     14 N           3.5330  101.6170   62.0220 N.am    1  UNL1       -0.2007
     15 C          -1.0840   95.1230   50.1570 C.3     1  UNL1        0.1136
     16 N           3.0540  101.6050   65.7180 N.3     1  UNL1       -0.1294
     17 C          -1.7910   93.9620   50.8840 C.3     1  UNL1        0.0247
     18 C           3.5110   95.2490   51.9820 C.3     1  UNL1        0.1120
     19 C           4.5100   96.1080   51.1880 C.3     1  UNL1        0.0247
     20 C           5.9610   95.6700   51.4110 C.3     1  UNL1        0.0021
     21 C          -2.7410   93.1790   49.9730 C.3     1  UNL1        0.0021
     22 C           2.4860  100.8910   57.7040 C.ar    1  UNL1        0.1393
     23 C           3.4770  100.0260   57.1780 C.ar    1  UNL1        0.0370
     24 C           3.1960   99.2010   56.0720 C.ar    1  UNL1        0.0062
     25 C           1.9220   99.2280   55.4580 C.ar    1  UNL1        0.0360
     26 C           0.9450  100.1170   55.9610 C.ar    1  UNL1        0.0062
     27 C           1.2280  100.9380   57.0720 C.ar    1  UNL1        0.0370
     28 C           3.8360  101.5210   59.5910 C.3     1  UNL1        0.2911
     29 C           3.6960  102.3170   60.8920 C.2     1  UNL1        0.2859
     30 C           3.3960  102.1820   63.3570 C.3     1  UNL1        0.1357
     31 C           3.1960  101.0560   64.3840 C.3     1  UNL1        0.1327
@<TRIPOS>BOND
     1     3     1    2
     2     4     2   ar
     3     5     4   ar
     4     5     1   ar
     5     6     4    2
     6     8     7   ar
     7    10     8   ar
     8    10     2   ar
     9    11     7   ar
    10    13    10   ar
    11    13     1   ar
    12    13    11   ar
    13    15     5    1
    14    17    15    1
    15    18     2    1
    16    19    18    1
    17    20    19    1
    18    21    17    1
    19    22     9    1
    20    23    22   ar
    21    24    23   ar
    22    25     7    1
    23    25    24   ar
    24    26    25   ar
    25    27    26   ar
    26    27    22   ar
    27    28     9    1
    28    29    28    1
    29    29    14   am
    30    29    12    2
    31    30    14    1
    32    31    30    1
    33    31    16    1
