@<TRIPOS>MOLECULE
3UZC_T4E_A330
 21 23 0 0 0
SMALL
GASTEIGER

@<TRIPOS>ATOM
      1 N           0.1360   97.7170   53.2110 N.ar    1  UNL1       -0.1092
      2 N           1.0880   96.8130   53.4830 N.ar    1  UNL1       -0.1436
      3 C           0.9780   95.5400   53.0060 C.ar    1  UNL1        0.1206
      4 C          -0.1600   95.1840   52.2130 C.ar    1  UNL1        0.1036
      5 N          -1.1110   96.1220   51.9560 N.ar    1  UNL1       -0.2083
      6 C          -0.8980   97.3240   52.4730 C.ar    1  UNL1        0.2751
      7 C           4.3010   92.9870   54.0750 C.ar    1  UNL1        0.2061
      8 C           4.5180   94.1910   53.3800 C.ar    1  UNL1        0.0430
      9 C           3.4290   95.0140   53.0400 C.ar    1  UNL1        0.0049
     10 C           2.1040   94.6560   53.3820 C.ar    1  UNL1        0.0219
     11 C           1.8990   93.4420   54.0770 C.ar    1  UNL1        0.0162
     12 C           2.9840   92.6090   54.4250 C.ar    1  UNL1        0.0965
     13 C          -0.9960   91.2900   50.4980 C.ar    1  UNL1        0.0000
     14 C           0.3300   91.7440   50.5860 C.ar    1  UNL1        0.0000
     15 C           0.6060   93.0070   51.1400 C.ar    1  UNL1        0.0015
     16 C          -0.4300   93.8460   51.6220 C.ar    1  UNL1        0.0193
     17 C          -1.7590   93.3650   51.5210 C.ar    1  UNL1        0.0015
     18 C          -2.0450   92.1010   50.9680 C.ar    1  UNL1        0.0000
     19 N          -1.8420   98.2560   52.2160 N.pl3   1  UNL1       -0.0847
     20 CL          2.6820   91.1330   55.2750 Cl      1  UNL1       -0.0789
     21 O           5.3660   92.1980   54.4000 O.3     1  UNL1       -0.2857
@<TRIPOS>BOND
     1     2     1   ar
     2     3     2   ar
     3     4     3   ar
     4     5     4   ar
     5     6     5   ar
     6     6     1   ar
     7     8     7   ar
     8     9     8   ar
     9    10     9   ar
    10    10     3    1
    11    11    10   ar
    12    12    11   ar
    13    12     7   ar
    14    14    13   ar
    15    15    14   ar
    16    16    15   ar
    17    16     4    1
    18    17    16   ar
    19    18    13   ar
    20    18    17   ar
    21    19     6    1
    22    20    12    1
    23    21     7    1
