@<TRIPOS>MOLECULE
3UZC_T4E_A330
 21 23 0 0 0
SMALL
GASTEIGER

@<TRIPOS>ATOM
      1 N           0.0950   97.7320   53.2560 N.ar    1  UNL1       -0.1092
      2 N           1.0550   96.8370   53.5290 N.ar    1  UNL1       -0.1436
      3 C           0.9600   95.5650   53.0470 C.ar    1  UNL1        0.1206
      4 C          -0.1700   95.2000   52.2480 C.ar    1  UNL1        0.1036
      5 N          -1.1300   96.1290   51.9910 N.ar    1  UNL1       -0.2083
      6 C          -0.9310   97.3320   52.5120 C.ar    1  UNL1        0.2751
      7 C           4.3040   93.0410   54.1210 C.ar    1  UNL1        0.2061
      8 C           4.5130   94.2510   53.4310 C.ar    1  UNL1        0.0430
      9 C           3.4160   95.0630   53.0890 C.ar    1  UNL1        0.0049
     10 C           2.0940   94.6900   53.4240 C.ar    1  UNL1        0.0219
     11 C           1.8980   93.4730   54.1150 C.ar    1  UNL1        0.0162
     12 C           2.9900   92.6490   54.4640 C.ar    1  UNL1        0.0965
     13 C          -0.9610   91.3040   50.5160 C.ar    1  UNL1        0.0000
     14 C           0.3610   91.7710   50.6110 C.ar    1  UNL1        0.0000
     15 C           0.6210   93.0350   51.1710 C.ar    1  UNL1        0.0015
     16 C          -0.4250   93.8620   51.6510 C.ar    1  UNL1        0.0193
     17 C          -1.7490   93.3670   51.5430 C.ar    1  UNL1        0.0015
     18 C          -2.0200   92.1030   50.9840 C.ar    1  UNL1        0.0000
     19 N          -1.8840   98.2550   52.2540 N.pl3   1  UNL1       -0.0847
     20 CL          2.7000   91.1670   55.3070 Cl      1  UNL1       -0.0789
     21 O           5.3770   92.2620   54.4470 O.3     1  UNL1       -0.2857
@<TRIPOS>BOND
     1     2     1   ar
     2     3     2   ar
     3     4     3   ar
     4     5     4   ar
     5     6     5   ar
     6     6     1   ar
     7     8     7   ar
     8     9     8   ar
     9    10     9   ar
    10    10     3    1
    11    11    10   ar
    12    12    11   ar
    13    12     7   ar
    14    14    13   ar
    15    15    14   ar
    16    16    15   ar
    17    16     4    1
    18    17    16   ar
    19    18    13   ar
    20    18    17   ar
    21    19     6    1
    22    20    12    1
    23    21     7    1
