@<TRIPOS>MOLECULE
3VG9_ZMA_A401
 25 28 0 0 0
SMALL
GASTEIGER

@<TRIPOS>ATOM
      1 C           1.5420  103.2080   55.1460 C.ar    1  UNL1       -0.0009
      2 C           0.7580  104.3340   55.3190 C.ar    1  UNL1        0.0417
      3 C          -0.2670  104.3200   56.2520 C.ar    1  UNL1        0.1957
      4 O          -1.0470  105.4410   56.4220 O.3     1  UNL1       -0.2866
      5 C          -0.5080  103.1850   57.0130 C.ar    1  UNL1        0.0417
      6 C           0.2770  102.0570   56.8400 C.ar    1  UNL1       -0.0009
      7 C           1.3030  102.0710   55.9070 C.ar    1  UNL1       -0.0202
      8 C           2.1550  100.8750   55.7050 C.3     1  UNL1        0.0498
      9 C           2.2010  100.3410   54.3170 C.3     1  UNL1        0.1200
     10 N           2.5810   98.9920   54.1500 N.pl3   1  UNL1       -0.2034
     11 C           1.7530   98.1500   53.3670 C.ar    1  UNL1        0.2415
     12 N           2.1130   96.8730   53.1420 N.ar    1  UNL1       -0.1757
     13 N           0.5980   98.6370   52.8570 N.ar    1  UNL1       -0.1769
     14 C          -0.1950   97.8370   52.1170 C.ar    1  UNL1        0.2627
     15 N          -1.4150   98.3530   51.5740 N.pl3   1  UNL1       -0.0858
     16 N           0.1690   96.5310   51.8870 N.ar    1  UNL1       -0.1614
     17 N          -0.4410   95.4950   51.1700 N.ar    1  UNL1       -0.1374
     18 C           1.3060   96.0550   52.3900 C.ar    1  UNL1        0.2594
     19 N           1.4220   94.7360   52.0030 N.ar    1  UNL1       -0.1861
     20 C           0.3480   94.4040   51.2620 C.ar    1  UNL1        0.2196
     21 C           0.1060   93.1770   50.6830 C.ar    1  UNL1        0.1828
     22 C           1.0600   92.2110   50.4180 C.ar    1  UNL1        0.0440
     23 C           0.4010   91.1510   49.8260 C.ar    1  UNL1        0.0439
     24 C          -0.9350   91.5010   49.7410 C.ar    1  UNL1        0.1798
     25 O          -1.0940   92.7300   50.2580 O.2     1  UNL1       -0.4472
@<TRIPOS>BOND
     1     2     1   ar
     2     3     2   ar
     3     4     3    1
     4     5     3   ar
     5     6     5   ar
     6     7     6   ar
     7     7     1   ar
     8     8     7    1
     9     9     8    1
    10    10     9    1
    11    11    10    1
    12    12    11   ar
    13    13    11   ar
    14    14    13   ar
    15    15    14    1
    16    16    14   ar
    17    17    16   ar
    18    18    16   ar
    19    18    12   ar
    20    19    18   ar
    21    20    19   ar
    22    20    17   ar
    23    21    20    1
    24    22    21   ar
    25    23    22   ar
    26    24    23   ar
    27    25    24   ar
    28    25    21   ar
