@<TRIPOS>MOLECULE
3VGA_ZMA_A401
 25 28 0 0 0
SMALL
GASTEIGER

@<TRIPOS>ATOM
      1 C           1.5960  103.6800   54.7730 C.ar    1  UNL1       -0.0009
      2 C           1.3120  105.0300   54.6230 C.ar    1  UNL1        0.0417
      3 C           0.1450  105.5620   55.1530 C.ar    1  UNL1        0.1957
      4 O          -0.1230  106.9100   54.9960 O.3     1  UNL1       -0.2866
      5 C          -0.7380  104.7260   55.8350 C.ar    1  UNL1        0.0417
      6 C          -0.4580  103.3730   55.9880 C.ar    1  UNL1       -0.0009
      7 C           0.7140  102.8510   55.4540 C.ar    1  UNL1       -0.0202
      8 C           1.0470  101.4080   55.5960 C.3     1  UNL1        0.0498
      9 C           1.8650  100.7890   54.5150 C.3     1  UNL1        0.1200
     10 N           2.1260   99.3810   54.5920 N.pl3   1  UNL1       -0.2034
     11 C           1.4330   98.4880   53.7180 C.ar    1  UNL1        0.2415
     12 N           1.8260   97.2060   53.5800 N.ar    1  UNL1       -0.1757
     13 N           0.3730   98.9570   53.0180 N.ar    1  UNL1       -0.1769
     14 C          -0.3000   98.1480   52.1850 C.ar    1  UNL1        0.2627
     15 N          -1.4230   98.6530   51.4510 N.pl3   1  UNL1       -0.0858
     16 N           0.1000   96.8300   52.0430 N.ar    1  UNL1       -0.1614
     17 N          -0.4160   95.8210   51.2690 N.ar    1  UNL1       -0.1374
     18 C           1.1330   96.3680   52.7180 C.ar    1  UNL1        0.2594
     19 N           1.2970   95.0110   52.3770 N.ar    1  UNL1       -0.1861
     20 C           0.3070   94.7120   51.4670 C.ar    1  UNL1        0.2196
     21 C           0.0620   93.3990   50.7950 C.ar    1  UNL1        0.1828
     22 C           1.0230   92.5590   50.2430 C.ar    1  UNL1        0.0440
     23 C           0.3530   91.4510   49.7190 C.ar    1  UNL1        0.0439
     24 C          -1.0020   91.6430   49.9560 C.ar    1  UNL1        0.1798
     25 O          -1.1310   92.8150   50.5960 O.2     1  UNL1       -0.4472
@<TRIPOS>BOND
     1     2     1   ar
     2     3     2   ar
     3     4     3    1
     4     5     3   ar
     5     6     5   ar
     6     7     6   ar
     7     7     1   ar
     8     8     7    1
     9     9     8    1
    10    10     9    1
    11    11    10    1
    12    12    11   ar
    13    13    11   ar
    14    14    13   ar
    15    15    14    1
    16    16    14   ar
    17    17    16   ar
    18    18    16   ar
    19    18    12   ar
    20    19    18   ar
    21    20    19   ar
    22    20    17   ar
    23    21    20    1
    24    22    21   ar
    25    23    22   ar
    26    24    23   ar
    27    25    24   ar
    28    25    21   ar
