@<TRIPOS>MOLECULE
4EIY_ZMA_A2401
 25 28 0 0 0
SMALL
GASTEIGER

@<TRIPOS>ATOM
      1 C           1.3740  103.0770   55.8860 C.ar    1  UNL1       -0.0009
      2 C           1.1030  104.4310   55.6950 C.ar    1  UNL1        0.0417
      3 C          -0.0890  104.7950   55.0600 C.ar    1  UNL1        0.1957
      4 O          -0.3600  106.1230   54.8740 O.3     1  UNL1       -0.2866
      5 C          -1.0010  103.8120   54.6220 C.ar    1  UNL1        0.0417
      6 C          -0.7010  102.4700   54.7910 C.ar    1  UNL1       -0.0009
      7 C           0.4450  102.1010   55.4770 C.ar    1  UNL1       -0.0202
      8 C           0.8360  100.6410   55.6360 C.3     1  UNL1        0.0498
      9 C           1.8460  100.4680   54.4910 C.3     1  UNL1        0.1200
     10 N           2.2180   99.0830   54.2370 N.pl3   1  UNL1       -0.2034
     11 C           1.3990   98.2290   53.5880 C.ar    1  UNL1        0.2415
     12 N           1.8030   96.9390   53.3950 N.ar    1  UNL1       -0.1757
     13 N           0.1940   98.6630   53.1310 N.ar    1  UNL1       -0.1769
     14 C          -0.6440   97.8000   52.5010 C.ar    1  UNL1        0.2627
     15 N          -1.8170   98.2710   52.0620 N.pl3   1  UNL1       -0.0858
     16 N          -0.2350   96.5380   52.2990 N.ar    1  UNL1       -0.1614
     17 N          -0.9340   95.5440   51.6530 N.ar    1  UNL1       -0.1374
     18 C           0.9580   96.1210   52.7170 C.ar    1  UNL1        0.2594
     19 N           1.1000   94.7960   52.4330 N.ar    1  UNL1       -0.1861
     20 C          -0.0570   94.5260   51.7860 C.ar    1  UNL1        0.2196
     21 C          -0.3910   93.1860   51.2560 C.ar    1  UNL1        0.1828
     22 C           0.4820   92.1270   51.1750 C.ar    1  UNL1        0.0440
     23 C          -0.3190   91.1230   50.6380 C.ar    1  UNL1        0.0439
     24 C          -1.6040   91.6150   50.4870 C.ar    1  UNL1        0.1798
     25 O          -1.6760   92.9360   50.8920 O.2     1  UNL1       -0.4472
@<TRIPOS>BOND
     1     2     1   ar
     2     3     2   ar
     3     4     3    1
     4     5     3   ar
     5     6     5   ar
     6     7     6   ar
     7     7     1   ar
     8     8     7    1
     9     9     8    1
    10    10     9    1
    11    11    10    1
    12    12    11   ar
    13    13    11   ar
    14    14    13   ar
    15    15    14    1
    16    16    14   ar
    17    17    16   ar
    18    18    16   ar
    19    18    12   ar
    20    19    18   ar
    21    20    19   ar
    22    20    17   ar
    23    21    20    1
    24    22    21   ar
    25    23    22   ar
    26    24    23   ar
    27    25    24   ar
    28    25    21   ar
