@<TRIPOS>MOLECULE
4UHR_NGI_A1320
 36 39 0 0 0
SMALL
GASTEIGER

@<TRIPOS>ATOM
      1 C           1.2520   87.5750   48.1420 C.3     1  UNL1        0.0253
      2 N           1.5650   89.3240   49.8500 N.am    1  UNL1       -0.2033
      3 O           0.0560   90.5290   51.0260 O.2     1  UNL1       -0.2706
      4 C           0.6410   88.3490   49.2940 C.3     1  UNL1        0.1153
      5 N           1.4200   94.1050   51.8850 N.ar    1  UNL1       -0.2693
      6 O           2.5600   92.2060   50.9550 O.3     1  UNL1       -0.3238
      7 C           1.2150   90.2290   50.7670 C.2     1  UNL1        0.2713
      8 N          -0.5830   94.8500   51.3510 N.ar    1  UNL1       -0.2193
      9 O           3.9200   92.3170   53.7960 O.3     1  UNL1       -0.2155
     10 C           2.3490   90.8920   51.4870 C.3     1  UNL1        0.2273
     11 N          -1.5630   97.5900   52.1200 N.pl3   1  UNL1       -0.1054
     12 O           2.6530   90.0440   53.7620 O.3     1  UNL1       -0.2171
     13 C           2.5980   93.1960   51.9940 C.3     1  UNL1        0.2413
     14 N           0.5290   97.8720   53.1390 N.ar    1  UNL1       -0.1925
     15 O           0.8720  108.5790   56.4330 O.co2   1  UNL1       -0.2456
     16 C           2.5770   92.4380   53.3150 C.3     1  UNL1        0.2342
     17 N           2.6200   98.1890   54.1670 N.pl3   1  UNL1       -0.2034
     18 O           2.6580  107.3930   56.9180 O.co2   1  UNL1       -0.2456
     19 C           2.0380   91.0660   52.9680 C.3     1  UNL1        0.2225
     20 N           2.1500   96.1570   53.0850 N.ar    1  UNL1       -0.1933
     21 C           0.2680   93.8050   51.2640 C.ar    1  UNL1        0.1816
     22 C           0.0440   95.8230   52.0440 C.ar    1  UNL1        0.1518
     23 C          -0.3360   97.1050   52.4370 C.ar    1  UNL1        0.1930
     24 C           1.7640   97.4080   53.4620 C.ar    1  UNL1        0.2392
     25 C           2.4750   99.6360   54.2050 C.3     1  UNL1        0.1200
     26 C           2.1250  100.1670   55.6100 C.3     1  UNL1        0.0498
     27 C           1.5960  101.5920   55.5690 C.ar    1  UNL1       -0.0204
     28 C           1.1650  102.1870   54.3690 C.ar    1  UNL1       -0.0045
     29 C           0.6830  103.4990   54.3690 C.ar    1  UNL1       -0.0046
     30 C           0.6320  104.2300   55.5700 C.ar    1  UNL1       -0.0216
     31 C           0.1100  105.6540   55.5910 C.3     1  UNL1        0.0382
     32 C           1.1720  106.6330   55.0930 C.3     1  UNL1        0.1187
     33 C           1.5590  107.5970   56.1940 C.2     1  UNL1        0.3652
     34 C           1.0590  103.6360   56.7640 C.ar    1  UNL1       -0.0046
     35 C           1.5410  102.3250   56.7640 C.ar    1  UNL1       -0.0045
     36 C           1.3110   95.3520   52.3770 C.ar    1  UNL1        0.1703
@<TRIPOS>BOND
     1     4     1    1
     2     4     2    1
     3     7     3    2
     4     7     2   am
     5    10     7    1
     6    10     6    1
     7    13     6    1
     8    13     5    1
     9    16     9    1
    10    16    13    1
    11    19    16    1
    12    19    12    1
    13    19    10    1
    14    21     8   ar
    15    21     5   ar
    16    22     8   ar
    17    23    22   ar
    18    23    14   ar
    19    23    11    1
    20    24    20   ar
    21    24    14   ar
    22    24    17    1
    23    25    17    1
    24    26    25    1
    25    27    26    1
    26    28    27   ar
    27    29    28   ar
    28    30    29   ar
    29    31    30    1
    30    32    31    1
    31    33    32    1
    32    33    18   ar
    33    33    15   ar
    34    34    30   ar
    35    35    27   ar
    36    35    34   ar
    37    36    22   ar
    38    36    20   ar
    39    36     5   ar
