@<TRIPOS>MOLECULE
5G53_NEC_A400
 22 24 0 0 0
SMALL
GASTEIGER

@<TRIPOS>ATOM
      1 C           1.1530   90.4540   51.1540 C.2     1  UNL1        0.2713
      2 O           0.0110   90.7820   51.4510 O.2     1  UNL1       -0.2706
      3 N           1.4190   89.5800   50.1830 N.am    1  UNL1       -0.2033
      4 C           0.3680   88.9810   49.3840 C.3     1  UNL1        0.1153
      5 C           0.9080   88.1620   48.2380 C.3     1  UNL1        0.0253
      6 C           2.3470   91.0470   51.8490 C.3     1  UNL1        0.2273
      7 O           2.6500   92.2740   51.1800 O.3     1  UNL1       -0.3238
      8 C           2.1380   91.3640   53.3300 C.3     1  UNL1        0.2225
      9 O           2.8320   90.4380   54.1780 O.3     1  UNL1       -0.2171
     10 C           2.6430   92.7900   53.4980 C.3     1  UNL1        0.2342
     11 O           3.9660   92.8540   54.0520 O.3     1  UNL1       -0.2155
     12 C           2.6550   93.3800   52.0950 C.3     1  UNL1        0.2413
     13 N           1.4800   94.2800   51.8900 N.ar    1  UNL1       -0.2693
     14 C           0.3610   94.0370   51.1670 C.ar    1  UNL1        0.1816
     15 N          -0.4840   95.0960   51.2150 N.ar    1  UNL1       -0.2193
     16 C           0.0940   96.0340   51.9780 C.ar    1  UNL1        0.1518
     17 C          -0.2480   97.3980   52.4400 C.ar    1  UNL1        0.1919
     18 N          -1.4230   97.9640   52.0780 N.pl3   1  UNL1       -0.1054
     19 N           0.6440   98.0500   53.2290 N.ar    1  UNL1       -0.2040
     20 C           1.8170   97.4890   53.5980 C.ar    1  UNL1        0.2016
     21 N           2.1850   96.2520   53.2120 N.ar    1  UNL1       -0.2048
     22 C           1.3880   95.4980   52.4160 C.ar    1  UNL1        0.1692
@<TRIPOS>BOND
     1     2     1    2
     2     3     1   am
     3     4     3    1
     4     5     4    1
     5     6     1    1
     6     7     6    1
     7     8     6    1
     8     8     9    1
     9    10     8    1
    10    10    11    1
    11    12     7    1
    12    12    10    1
    13    12    13    1
    14    14    13   ar
    15    15    14   ar
    16    16    15   ar
    17    17    16   ar
    18    18    17    1
    19    19    17   ar
    20    20    19   ar
    21    21    20   ar
    22    22    21   ar
    23    22    16   ar
    24    22    13   ar
