@<TRIPOS>MOLECULE
5G53_NEC_A400
 22 24 0 0 0
SMALL
GASTEIGER

@<TRIPOS>ATOM
      1 C           0.9610   90.2450   51.1570 C.2     1  UNL1        0.2713
      2 O          -0.1720   90.6000   51.4580 O.2     1  UNL1       -0.2706
      3 N           1.2020   89.3640   50.1850 N.am    1  UNL1       -0.2033
      4 C           0.1340   88.7900   49.3900 C.3     1  UNL1        0.1153
      5 C           0.6490   87.9590   48.2420 C.3     1  UNL1        0.0253
      6 C           2.1720   90.8080   51.8470 C.3     1  UNL1        0.2273
      7 O           2.5020   92.0280   51.1770 O.3     1  UNL1       -0.3238
      8 C           1.9760   91.1300   53.3290 C.3     1  UNL1        0.2225
      9 O           2.6500   90.1880   54.1740 O.3     1  UNL1       -0.2171
     10 C           2.5160   92.5430   53.4950 C.3     1  UNL1        0.2342
     11 O           3.8420   92.5750   54.0430 O.3     1  UNL1       -0.2155
     12 C           2.5370   93.1330   52.0910 C.3     1  UNL1        0.2413
     13 N           1.3840   94.0610   51.8900 N.ar    1  UNL1       -0.2693
     14 C           0.2560   93.8450   51.1720 C.ar    1  UNL1        0.1816
     15 N          -0.5630   94.9240   51.2230 N.ar    1  UNL1       -0.2193
     16 C           0.0400   95.8480   51.9840 C.ar    1  UNL1        0.1518
     17 C          -0.2670   97.2200   52.4470 C.ar    1  UNL1        0.1919
     18 N          -1.4290   97.8140   52.0890 N.pl3   1  UNL1       -0.1054
     19 N           0.6440   97.8500   53.2320 N.ar    1  UNL1       -0.2040
     20 C           1.8040   97.2620   53.5970 C.ar    1  UNL1        0.2016
     21 N           2.1410   96.0150   53.2100 N.ar    1  UNL1       -0.2048
     22 C           1.3230   95.2810   52.4170 C.ar    1  UNL1        0.1692
@<TRIPOS>BOND
     1     2     1    2
     2     3     1   am
     3     4     3    1
     4     5     4    1
     5     6     1    1
     6     7     6    1
     7     8     6    1
     8     8     9    1
     9    10     8    1
    10    10    11    1
    11    12    10    1
    12    12     7    1
    13    12    13    1
    14    14    13   ar
    15    15    14   ar
    16    16    15   ar
    17    17    16   ar
    18    18    17    1
    19    19    17   ar
    20    20    19   ar
    21    21    20   ar
    22    22    21   ar
    23    22    16   ar
    24    22    13   ar
