@<TRIPOS>MOLECULE
5IU4_ZMA_A2401
 25 28 0 0 0
SMALL
GASTEIGER

@<TRIPOS>ATOM
      1 C           1.3410  103.2150   55.9070 C.ar    1  UNL1       -0.0009
      2 C           1.0080  104.5660   55.7140 C.ar    1  UNL1        0.0417
      3 C          -0.1730  104.8840   55.0290 C.ar    1  UNL1        0.1957
      4 O          -0.4850  106.2060   54.8510 O.3     1  UNL1       -0.2866
      5 C          -1.0250  103.8630   54.5360 C.ar    1  UNL1        0.0417
      6 C          -0.6740  102.5310   54.7260 C.ar    1  UNL1       -0.0009
      7 C           0.4920  102.1970   55.4110 C.ar    1  UNL1       -0.0202
      8 C           0.8920  100.7400   55.6430 C.3     1  UNL1        0.0498
      9 C           1.8950  100.5080   54.4910 C.3     1  UNL1        0.1200
     10 N           2.2940   99.1160   54.3170 N.pl3   1  UNL1       -0.2034
     11 C           1.4920   98.2520   53.6550 C.ar    1  UNL1        0.2415
     12 N           1.8970   96.9530   53.5000 N.ar    1  UNL1       -0.1757
     13 N           0.2970   98.6830   53.1670 N.ar    1  UNL1       -0.1769
     14 C          -0.5210   97.8250   52.4960 C.ar    1  UNL1        0.2627
     15 N          -1.6860   98.2980   52.0360 N.pl3   1  UNL1       -0.0858
     16 N          -0.1120   96.5540   52.3510 N.ar    1  UNL1       -0.1614
     17 N          -0.7850   95.5430   51.7170 N.ar    1  UNL1       -0.1374
     18 C           1.0710   96.1330   52.8340 C.ar    1  UNL1        0.2594
     19 N           1.2670   94.8290   52.5370 N.ar    1  UNL1       -0.1861
     20 C           0.1260   94.5480   51.8740 C.ar    1  UNL1        0.2196
     21 C          -0.1870   93.2210   51.3500 C.ar    1  UNL1        0.1828
     22 C           0.6950   92.1840   51.1380 C.ar    1  UNL1        0.0440
     23 C          -0.1720   91.1970   50.6410 C.ar    1  UNL1        0.0439
     24 C          -1.4630   91.7000   50.5880 C.ar    1  UNL1        0.1798
     25 O          -1.4940   93.0120   51.0470 O.2     1  UNL1       -0.4472
@<TRIPOS>BOND
     1     2     1   ar
     2     3     2   ar
     3     4     3    1
     4     5     3   ar
     5     6     5   ar
     6     7     6   ar
     7     7     1   ar
     8     8     7    1
     9     9     8    1
    10    10     9    1
    11    11    10    1
    12    12    11   ar
    13    13    11   ar
    14    14    13   ar
    15    15    14    1
    16    16    14   ar
    17    17    16   ar
    18    18    16   ar
    19    18    12   ar
    20    19    18   ar
    21    20    19   ar
    22    20    17   ar
    23    21    20    1
    24    22    21   ar
    25    23    22   ar
    26    24    23   ar
    27    25    24   ar
    28    25    21   ar
