@<TRIPOS>MOLECULE
5IU7_6DY_A2401
 30 34 0 0 0
SMALL
GASTEIGER

@<TRIPOS>ATOM
      1 C          -0.6310  103.8500   57.0710 C.3     1  UNL1        0.0217
      2 C          -0.5390  102.4200   54.6200 C.3     1  UNL1        0.0725
      3 C          -3.4560  105.6360   57.2720 C.ar    1  UNL1       -0.0043
      4 C          -4.0580  107.8610   56.5400 C.ar    1  UNL1       -0.0000
      5 C           1.0910   96.2380   52.8240 C.ar    1  UNL1        0.2594
      6 C           0.0680   94.5820   51.8220 C.ar    1  UNL1        0.2196
      7 C          -3.1830  107.6720   55.4650 C.ar    1  UNL1       -0.0003
      8 C          -2.4630  106.4830   55.3200 C.ar    1  UNL1       -0.0043
      9 C          -4.1770  106.8090   57.4440 C.ar    1  UNL1       -0.0003
     10 C          -1.1900  103.7930   54.6850 C.3     1  UNL1        0.0217
     11 C          -2.5720  105.3860   56.2090 C.ar    1  UNL1       -0.0224
     12 C          -1.7810  104.0780   56.0830 C.3     1  UNL1        0.0251
     13 N          -1.7550   98.4270   51.9440 N.pl3   1  UNL1       -0.0858
     14 C          -0.5520   97.9890   52.4500 C.ar    1  UNL1        0.2627
     15 N           0.2670   98.8340   53.1070 N.ar    1  UNL1       -0.1769
     16 C           1.5010   98.3680   53.6300 C.ar    1  UNL1        0.2416
     17 N           2.2470   99.3160   54.2580 N.pl3   1  UNL1       -0.2023
     18 C           1.9370  100.6680   54.4540 C.3     1  UNL1        0.1326
     19 C           0.9830  100.8500   55.6390 C.3     1  UNL1        0.0958
     20 N           0.5560  102.2800   55.6370 N.3     1  UNL1       -0.2712
     21 C          -0.0300  102.4670   57.0170 C.3     1  UNL1        0.0725
     22 N           1.9000   97.1060   53.4970 N.ar    1  UNL1       -0.1757
     23 N           1.2210   94.9360   52.5220 N.ar    1  UNL1       -0.1861
     24 N          -0.8060   95.6220   51.6930 N.ar    1  UNL1       -0.1374
     25 N          -0.1850   96.6700   52.2750 N.ar    1  UNL1       -0.1614
     26 C          -0.1910   93.2700   51.3400 C.ar    1  UNL1        0.1828
     27 C           0.5990   92.1740   51.1280 C.ar    1  UNL1        0.0440
     28 C          -0.2410   91.0830   50.6450 C.ar    1  UNL1        0.0439
     29 C          -1.5460   91.6290   50.5940 C.ar    1  UNL1        0.1798
     30 O          -1.4780   92.9540   51.0090 O.2     1  UNL1       -0.4472
@<TRIPOS>BOND
     1     7     4   ar
     2     8     7   ar
     3     9     4   ar
     4     9     3   ar
     5    10     2    1
     6    11     8   ar
     7    11     3   ar
     8    12    11    1
     9    12    10    1
    10    12     1    1
    11    14    13    1
    12    15    14   ar
    13    16    15   ar
    14    17    16    1
    15    18    17    1
    16    19    18    1
    17    20    19    1
    18    20     2    1
    19    21    20    1
    20    21     1    1
    21    22     5   ar
    22    22    16   ar
    23    23     6   ar
    24    23     5   ar
    25    24     6   ar
    26    25    24   ar
    27    25    14   ar
    28    25     5   ar
    29    26     6    1
    30    27    26   ar
    31    28    27   ar
    32    29    28   ar
    33    30    29   ar
    34    30    26   ar
