@<TRIPOS>MOLECULE
5IUA_6DX_A2401
 31 35 0 0 0
SMALL
GASTEIGER

@<TRIPOS>ATOM
      1 C           1.0240  104.3410   55.8240 C.3     1  UNL1        0.0938
      2 C          -1.3040  103.8580   54.4190 C.3     1  UNL1        0.1081
      3 C          -1.9360  105.6260   56.0200 C.ar    1  UNL1        0.0479
      4 C          -3.3000  105.2790   57.9840 C.ar    1  UNL1        0.0013
      5 C          -2.2150  106.9830   56.0690 C.ar    1  UNL1        0.0145
      6 C           1.0990   96.1930   52.8480 C.ar    1  UNL1        0.2594
      7 C           0.0520   94.5170   51.8680 C.ar    1  UNL1        0.2196
      8 C          -3.5780  106.6380   58.0290 C.ar    1  UNL1        0.0001
      9 C          -3.0380  107.4890   57.0750 C.ar    1  UNL1        0.0013
     10 C          -2.4810  104.7750   56.9810 C.ar    1  UNL1        0.0145
     11 C          -0.5470  102.7450   55.1620 C.3     1  UNL1        0.0938
     12 C           0.2760  105.3870   54.9970 C.3     1  UNL1        0.1081
     13 N          -1.7210   98.4150   52.2190 N.pl3   1  UNL1       -0.0858
     14 C          -0.4440   97.9440   52.6590 C.ar    1  UNL1        0.2627
     15 N           0.4150   98.7730   53.2950 N.ar    1  UNL1       -0.1769
     16 C           1.6320   98.3130   53.7150 C.ar    1  UNL1        0.2415
     17 N           2.5370   99.1790   54.3880 N.pl3   1  UNL1       -0.2037
     18 C           2.2070  100.5860   54.5400 C.3     1  UNL1        0.1168
     19 C           1.2860  100.7750   55.7600 C.3     1  UNL1        0.0407
     20 C           1.2750  102.2410   56.2650 C.3     1  UNL1        0.0740
     21 N           0.7910  103.0360   55.3970 N.3     1  UNL1       -0.2697
     22 N          -1.0660  105.0990   54.9590 N.pl3   1  UNL1       -0.3046
     23 N           1.9790   97.0450   53.5020 N.ar    1  UNL1       -0.1757
     24 N           1.1990   94.8590   52.4970 N.ar    1  UNL1       -0.1861
     25 N          -0.7590   95.6070   51.8280 N.ar    1  UNL1       -0.1374
     26 N          -0.0870   96.6370   52.4380 N.ar    1  UNL1       -0.1614
     27 C          -0.2770   93.1160   51.3220 C.ar    1  UNL1        0.1828
     28 C           0.6390   92.0820   51.0840 C.ar    1  UNL1        0.0440
     29 C          -0.0970   90.9820   50.6090 C.ar    1  UNL1        0.0439
     30 C          -1.4380   91.3560   50.5700 C.ar    1  UNL1        0.1798
     31 O          -1.5210   92.6540   51.0130 O.2     1  UNL1       -0.4472
@<TRIPOS>BOND
     1     5     3   ar
     2     8     4   ar
     3     9     8   ar
     4     9     5   ar
     5    10     4   ar
     6    10     3   ar
     7    11     2    1
     8    12     1    1
     9    14    13    1
    10    15    14   ar
    11    16    15   ar
    12    17    16    1
    13    18    17    1
    14    19    18    1
    15    20    19    1
    16    21    20    1
    17    21    11    1
    18    21     1    1
    19    22     2    1
    20    22    12    1
    21    22     3    1
    22    23     6   ar
    23    23    16   ar
    24    24     7   ar
    25    24     6   ar
    26    25     7   ar
    27    26    25   ar
    28    26    14   ar
    29    26     6   ar
    30    27     7    1
    31    28    27   ar
    32    29    28   ar
    33    30    29   ar
    34    31    30   ar
    35    31    27   ar
