@<TRIPOS>MOLECULE
5IUB_6DV_A2401
 32 36 0 0 0
SMALL
GASTEIGER

@<TRIPOS>ATOM
      1 C          -0.1290  103.8120   56.9420 C.3     1  UNL1        0.1082
      2 C          -0.2870  102.0390   54.7340 C.3     1  UNL1        0.0939
      3 C          -2.3550  105.9180   55.1520 C.ar    1  UNL1        0.0191
      4 C          -3.9620  107.1040   56.5140 C.ar    1  UNL1        0.1425
      5 C          -2.8870  105.1110   57.3710 C.ar    1  UNL1        0.1556
      6 C           0.0860   94.4560   51.7950 C.ar    1  UNL1        0.2196
      7 C           1.1490   96.0190   52.7320 C.ar    1  UNL1        0.2594
      8 C          -3.7820  106.1710   57.5380 C.ar    1  UNL1        0.0605
      9 C          -3.2490  106.9760   55.3220 C.ar    1  UNL1        0.0311
     10 C          -0.7810  103.4960   54.6820 C.3     1  UNL1        0.1082
     11 C          -2.1610  104.9720   56.1720 C.ar    1  UNL1        0.0759
     12 N          -1.6540   98.2930   52.1090 N.pl3   1  UNL1       -0.0858
     13 C          -0.4340   97.7890   52.5220 C.ar    1  UNL1        0.2627
     14 N           0.4230   98.6290   53.1520 N.ar    1  UNL1       -0.1769
     15 C           1.6170   98.1050   53.5480 C.ar    1  UNL1        0.2416
     16 N           2.5400   98.9290   54.2050 N.pl3   1  UNL1       -0.2023
     17 C           2.2780  100.3440   54.4120 C.3     1  UNL1        0.1326
     18 C           1.4410  100.6030   55.6740 C.3     1  UNL1        0.0959
     19 C           0.5000  102.3990   56.9690 C.3     1  UNL1        0.0939
     20 F          -4.8290  108.1320   56.6690 F       1  UNL1       -0.2041
     21 F          -2.7370  104.2250   58.3850 F       1  UNL1       -0.2028
     22 N           2.0240   96.8170   53.3630 N.ar    1  UNL1       -0.1757
     23 N           1.2380   94.7100   52.3970 N.ar    1  UNL1       -0.1861
     24 N          -0.7670   95.4690   51.7000 N.ar    1  UNL1       -0.1374
     25 N          -0.0840   96.4830   52.3040 N.ar    1  UNL1       -0.1614
     26 C          -0.2040   93.0940   51.2750 C.ar    1  UNL1        0.1828
     27 C           0.5970   91.9730   51.0460 C.ar    1  UNL1        0.0440
     28 C          -0.2260   90.9570   50.5480 C.ar    1  UNL1        0.0439
     29 C          -1.4960   91.5030   50.4980 C.ar    1  UNL1        0.1798
     30 O          -1.4870   92.7880   50.9360 O.2     1  UNL1       -0.4472
     31 N          -1.2590  103.8990   56.0090 N.pl3   1  UNL1       -0.3029
     32 N           0.8670  101.9390   55.6330 N.3     1  UNL1       -0.2683
@<TRIPOS>BOND
     1     8     5   ar
     2     8     4   ar
     3     9     4   ar
     4     9     3   ar
     5    10     2    1
     6    11     5   ar
     7    11     3   ar
     8    13    12    1
     9    14    13   ar
    10    15    14   ar
    11    16    15    1
    12    17    16    1
    13    18    17    1
    14    19     1    1
    15    20     4    1
    16    21     5    1
    17    22     7   ar
    18    22    15   ar
    19    23     7   ar
    20    23     6   ar
    21    24     6   ar
    22    25    24   ar
    23    25    13   ar
    24    25     7   ar
    25    26     6    1
    26    27    26   ar
    27    28    27   ar
    28    29    28   ar
    29    30    29   ar
    30    30    26   ar
    31    31    10    1
    32    31    11    1
    33    31     1    1
    34    32    19    1
    35    32    18    1
    36    32     2    1
