@<TRIPOS>MOLECULE
5K2C_ZMA_A1201
 25 28 0 0 0
SMALL
GASTEIGER

@<TRIPOS>ATOM
      1 C           1.5500  102.9670   55.9670 C.ar    1  UNL1       -0.0009
      2 C           1.3040  104.3310   55.8480 C.ar    1  UNL1        0.0417
      3 C           0.1170  104.7450   55.2350 C.ar    1  UNL1        0.1957
      4 O          -0.1280  106.0840   55.1160 O.3     1  UNL1       -0.2866
      5 C          -0.8100  103.8080   54.7470 C.ar    1  UNL1        0.0417
      6 C          -0.5540  102.4460   54.8670 C.ar    1  UNL1       -0.0009
      7 C           0.6240  102.0320   55.4960 C.ar    1  UNL1       -0.0202
      8 C           0.9680  100.5660   55.6080 C.3     1  UNL1        0.0498
      9 C           1.8410  100.3490   54.3820 C.3     1  UNL1        0.1200
     10 N           2.2580   98.9930   54.1790 N.pl3   1  UNL1       -0.2034
     11 C           1.4460   98.1340   53.5250 C.ar    1  UNL1        0.2415
     12 N           1.8250   96.8610   53.3540 N.ar    1  UNL1       -0.1757
     13 N           0.2520   98.5910   53.0640 N.ar    1  UNL1       -0.1769
     14 C          -0.5980   97.7550   52.4240 C.ar    1  UNL1        0.2627
     15 N          -1.7920   98.2450   51.9900 N.pl3   1  UNL1       -0.0858
     16 N          -0.2090   96.4820   52.2280 N.ar    1  UNL1       -0.1614
     17 N          -0.9560   95.4740   51.6120 N.ar    1  UNL1       -0.1374
     18 C           0.9690   96.0510   52.6870 C.ar    1  UNL1        0.2594
     19 N           1.1100   94.7330   52.3800 N.ar    1  UNL1       -0.1861
     20 C          -0.0640   94.4570   51.7330 C.ar    1  UNL1        0.2196
     21 C          -0.4400   93.1130   51.2190 C.ar    1  UNL1        0.1828
     22 C           0.3960   92.0260   51.0910 C.ar    1  UNL1        0.0440
     23 C          -0.4730   91.0380   50.6030 C.ar    1  UNL1        0.0439
     24 C          -1.7600   91.5520   50.4670 C.ar    1  UNL1        0.1798
     25 O          -1.7280   92.8700   50.8800 O.2     1  UNL1       -0.4472
@<TRIPOS>BOND
     1     2     1   ar
     2     3     2   ar
     3     4     3    1
     4     5     3   ar
     5     6     5   ar
     6     7     6   ar
     7     7     1   ar
     8     8     7    1
     9     9     8    1
    10    10     9    1
    11    11    10    1
    12    12    11   ar
    13    13    11   ar
    14    14    13   ar
    15    15    14    1
    16    16    14   ar
    17    17    16   ar
    18    18    16   ar
    19    18    12   ar
    20    19    18   ar
    21    20    19   ar
    22    20    17   ar
    23    21    20    1
    24    22    21   ar
    25    23    22   ar
    26    24    23   ar
    27    25    24   ar
    28    25    21   ar
