@<TRIPOS>MOLECULE
5K2D_ZMA_A1201
 25 28 0 0 0
SMALL
GASTEIGER

@<TRIPOS>ATOM
      1 C           1.5330  103.0730   55.9620 C.ar    1  UNL1       -0.0009
      2 C           1.2920  104.4370   55.8380 C.ar    1  UNL1        0.0417
      3 C           0.1090  104.8440   55.2110 C.ar    1  UNL1        0.1957
      4 O          -0.1340  106.1820   55.0860 O.3     1  UNL1       -0.2866
      5 C          -0.8150  103.9010   54.7200 C.ar    1  UNL1        0.0417
      6 C          -0.5670  102.5390   54.8490 C.ar    1  UNL1       -0.0009
      7 C           0.6100  102.1320   55.4870 C.ar    1  UNL1       -0.0202
      8 C           0.9640  100.6650   55.6160 C.3     1  UNL1        0.0498
      9 C           1.8370  100.4120   54.3910 C.3     1  UNL1        0.1200
     10 N           2.2430   99.0370   54.2090 N.pl3   1  UNL1       -0.2034
     11 C           1.4240   98.1750   53.5610 C.ar    1  UNL1        0.2415
     12 N           1.7980   96.9010   53.3840 N.ar    1  UNL1       -0.1757
     13 N           0.2310   98.6290   53.0980 N.ar    1  UNL1       -0.1769
     14 C          -0.6240   97.7910   52.4600 C.ar    1  UNL1        0.2627
     15 N          -1.8240   98.2820   52.0260 N.pl3   1  UNL1       -0.0858
     16 N          -0.2330   96.5170   52.2670 N.ar    1  UNL1       -0.1614
     17 N          -0.9760   95.5130   51.6570 N.ar    1  UNL1       -0.1374
     18 C           0.9440   96.0860   52.7200 C.ar    1  UNL1        0.2594
     19 N           1.0930   94.7630   52.4170 N.ar    1  UNL1       -0.1861
     20 C          -0.0810   94.4980   51.7680 C.ar    1  UNL1        0.2196
     21 C          -0.4670   93.1550   51.2570 C.ar    1  UNL1        0.1828
     22 C           0.3610   92.0570   51.1200 C.ar    1  UNL1        0.0440
     23 C          -0.5220   91.0750   50.6400 C.ar    1  UNL1        0.0439
     24 C          -1.8060   91.6060   50.5250 C.ar    1  UNL1        0.1798
     25 O          -1.7640   92.9270   50.9380 O.2     1  UNL1       -0.4472
@<TRIPOS>BOND
     1     2     1   ar
     2     3     2   ar
     3     4     3    1
     4     5     3   ar
     5     6     5   ar
     6     7     6   ar
     7     7     1   ar
     8     8     7    1
     9     9     8    1
    10    10     9    1
    11    11    10    1
    12    12    11   ar
    13    13    11   ar
    14    14    13   ar
    15    15    14    1
    16    16    14   ar
    17    17    16   ar
    18    18    16   ar
    19    18    12   ar
    20    19    18   ar
    21    20    19   ar
    22    20    17   ar
    23    21    20    1
    24    22    21   ar
    25    23    22   ar
    26    24    23   ar
    27    25    24   ar
    28    25    21   ar
