@<TRIPOS>MOLECULE
5MZJ_TEP_A2401
 13 14 0 0 0
SMALL
GASTEIGER

@<TRIPOS>ATOM
      1 C           1.3890   92.7700   51.3080 C.3     1  UNL1        0.1383
      2 N           1.2070   94.1470   51.8430 N.ar    1  UNL1       -0.2454
      3 C           2.2620   94.7370   52.5820 C.ar    1  UNL1        0.3350
      4 O           3.3030   94.1070   52.7770 O.2     1  UNL1       -0.2461
      5 N           2.1360   96.0340   53.1130 N.ar    1  UNL1       -0.2627
      6 C           3.2720   96.6030   53.8740 C.3     1  UNL1        0.1366
      7 C           0.9500   96.7400   52.8910 C.ar    1  UNL1        0.1716
      8 C          -0.0830   96.1460   52.1550 C.ar    1  UNL1        0.1731
      9 C          -0.0150   94.8410   51.6040 C.ar    1  UNL1        0.2850
     10 O          -0.9230   94.3320   50.9530 O.2     1  UNL1       -0.2651
     11 N          -1.1180   97.0720   52.0980 N.ar    1  UNL1       -0.2160
     12 C          -0.6880   98.1680   52.7820 C.ar    1  UNL1        0.2005
     13 N           0.5830   98.0200   53.2760 N.ar    1  UNL1       -0.2047
@<TRIPOS>BOND
     1     2     1    1
     2     3     2   ar
     3     4     3    2
     4     5     3   ar
     5     6     5    1
     6     7     5   ar
     7     8     7   ar
     8     9     8   ar
     9     9     2   ar
    10    10     9    2
    11    11     8   ar
    12    12    11   ar
    13    13     7   ar
    14    13    12   ar
