@<TRIPOS>MOLECULE
5MZJ_TEP_A2401
 13 14 0 0 0
SMALL
GASTEIGER

@<TRIPOS>ATOM
      1 C           1.3880   92.8140   51.2330 C.3     1  UNL1        0.1383
      2 N           1.2000   94.1860   51.7760 N.ar    1  UNL1       -0.2454
      3 C           2.2520   94.7780   52.5180 C.ar    1  UNL1        0.3350
      4 O           3.2970   94.1530   52.7080 O.2     1  UNL1       -0.2461
      5 N           2.1200   96.0710   53.0560 N.ar    1  UNL1       -0.2627
      6 C           3.2530   96.6420   53.8200 C.3     1  UNL1        0.1366
      7 C           0.9290   96.7710   52.8400 C.ar    1  UNL1        0.1716
      8 C          -0.1010   96.1760   52.1020 C.ar    1  UNL1        0.1731
      9 C          -0.0270   94.8750   51.5430 C.ar    1  UNL1        0.2850
     10 O          -0.9330   94.3650   50.8900 O.2     1  UNL1       -0.2651
     11 N          -1.1420   97.0960   52.0510 N.ar    1  UNL1       -0.2160
     12 C          -0.7180   98.1910   52.7420 C.ar    1  UNL1        0.2005
     13 N           0.5550   98.0480   53.2330 N.ar    1  UNL1       -0.2047
@<TRIPOS>BOND
     1     2     1    1
     2     3     2   ar
     3     4     3    2
     4     5     3   ar
     5     6     5    1
     6     7     5   ar
     7     8     7   ar
     8     9     8   ar
     9     9     2   ar
    10    10     9    2
    11    11     8   ar
    12    12    11   ar
    13    13     7   ar
    14    13    12   ar
