@<TRIPOS>MOLECULE
5MZP_CFF_A2401
 14 15 0 0 0
SMALL
GASTEIGER

@<TRIPOS>ATOM
      1 N           1.1740   94.1950   51.8370 N.ar    1  UNL1       -0.2454
      2 C           0.0820   95.0940   51.7080 C.ar    1  UNL1        0.3350
      3 C           1.1020   92.9000   51.2470 C.3     1  UNL1        0.1383
      4 C           2.3200   94.5810   52.5430 C.ar    1  UNL1        0.2832
      5 N           0.1530   96.4000   52.3000 N.ar    1  UNL1       -0.2628
      6 O          -0.9120   94.7620   51.0950 O.2     1  UNL1       -0.2461
      7 C          -0.9460   97.2970   52.1670 C.3     1  UNL1        0.1366
      8 C           1.3430   96.8090   53.0340 C.ar    1  UNL1        0.1696
      9 C           2.3960   95.9550   53.1660 C.ar    1  UNL1        0.1528
     10 N           1.6560   97.9750   53.6800 N.ar    1  UNL1       -0.2063
     11 O           3.2470   93.8030   52.6460 O.2     1  UNL1       -0.2652
     12 N           3.3640   96.6000   53.8970 N.ar    1  UNL1       -0.3021
     13 C           2.9000   97.8410   54.2070 C.ar    1  UNL1        0.1802
     14 C           4.6370   96.0850   54.2770 C.3     1  UNL1        0.1322
@<TRIPOS>BOND
     1     2     1   ar
     2     3     1    1
     3     4     1   ar
     4     5     2   ar
     5     6     2    2
     6     7     5    1
     7     8     5   ar
     8     9     8   ar
     9     9     4   ar
    10    10     8   ar
    11    11     4    2
    12    12     9   ar
    13    13    12   ar
    14    13    10   ar
    15    14    12    1
