@<TRIPOS>MOLECULE
5NM4_ZMA_A507
 40 43 0 0 0
SMALL
GASTEIGER

@<TRIPOS>ATOM
      1 C           1.6420  103.0090   55.7990 C.ar    1  UNL1       -0.0551
      2 C           1.3650  104.3630   55.6720 C.ar    1  UNL1       -0.0199
      3 C           0.1430  104.7460   55.1480 C.ar    1  UNL1        0.1169
      4 O          -0.1740  106.1280   54.9970 O.3     1  UNL1       -0.5068
      5 C          -0.7910  103.7760   54.7640 C.ar    1  UNL1       -0.0199
      6 C          -0.5150  102.4230   54.8580 C.ar    1  UNL1       -0.0551
      7 C           0.6820  102.0410   55.4110 C.ar    1  UNL1       -0.0457
      8 C           0.9900  100.5790   55.5100 C.3     1  UNL1       -0.0120
      9 C           1.9100  100.3790   54.3160 C.3     1  UNL1        0.0158
     10 N           2.3130   99.0150   54.2020 N.pl3   1  UNL1       -0.3130
     11 C           1.4570   98.1150   53.5180 C.ar    1  UNL1        0.2213
     12 N           1.8680   96.8850   53.3500 N.ar    1  UNL1       -0.1771
     13 N           0.2830   98.6160   53.1170 N.ar    1  UNL1       -0.1812
     14 C          -0.5200   97.7580   52.4980 C.ar    1  UNL1        0.2198
     15 N          -1.7310   98.2880   52.0640 N.pl3   1  UNL1       -0.3273
     16 N          -0.1180   96.5000   52.2980 N.ar    1  UNL1       -0.1644
     17 N          -0.7810   95.4700   51.7410 N.ar    1  UNL1       -0.1375
     18 C           1.0480   96.0680   52.7200 C.ar    1  UNL1        0.2593
     19 N           1.2050   94.8110   52.4130 N.ar    1  UNL1       -0.1861
     20 C           0.0480   94.4720   51.8090 C.ar    1  UNL1        0.2189
     21 C          -0.2690   93.2310   51.3250 C.ar    1  UNL1        0.1734
     22 C           0.4580   92.0950   51.1450 C.ar    1  UNL1       -0.0127
     23 C          -0.4610   91.1810   50.6770 C.ar    1  UNL1       -0.0232
     24 C          -1.6890   91.7750   50.6020 C.ar    1  UNL1        0.0927
     25 O          -1.5730   93.0230   51.0240 O.2     1  UNL1       -0.4597
     26 H           2.4590  102.7350   56.1490 H       1  UNL1        0.0621
     27 H           1.9870  105.0010   55.9390 H       1  UNL1        0.0654
     28 H          -0.2950  106.3030   54.1740 H       1  UNL1        0.2921
     29 H          -1.6020  104.0480   54.3990 H       1  UNL1        0.0654
     30 H          -1.1460  101.7890   54.6030 H       1  UNL1        0.0621
     31 H           0.1840  100.0480   55.4190 H       1  UNL1        0.0328
     32 H           1.4500  100.3770   56.3390 H       1  UNL1        0.0328
     33 H           2.6970  100.9350   54.4230 H       1  UNL1        0.0465
     34 H           1.4430  100.6410   53.5070 H       1  UNL1        0.0465
     35 H           3.0560   98.7460   54.5390 H       1  UNL1        0.1489
     36 H          -1.8020   99.1320   51.9150 H       1  UNL1        0.1452
     37 H          -2.4080   97.7710   51.9440 H       1  UNL1        0.1452
     38 H           1.3680   91.9690   51.2890 H       1  UNL1        0.0656
     39 H          -0.2730   90.3030   50.4360 H       1  UNL1        0.0649
     40 H          -2.4760   91.3670   50.3180 H       1  UNL1        0.1029
@<TRIPOS>BOND
     1     2     1   ar
     2     3     2   ar
     3     4     3    1
     4     5     3   ar
     5     6     5   ar
     6     7     6   ar
     7     7     1   ar
     8     8     7    1
     9     9     8    1
    10    10     9    1
    11    11    10    1
    12    12    11   ar
    13    13    11   ar
    14    14    13   ar
    15    15    14    1
    16    16    14   ar
    17    17    16   ar
    18    18    16   ar
    19    18    12   ar
    20    19    18   ar
    21    20    19   ar
    22    20    17   ar
    23    21    20    1
    24    22    21   ar
    25    23    22   ar
    26    24    23   ar
    27    25    24   ar
    28    25    21   ar
    29    26     1    1
    30    27     2    1
    31    28     4    1
    32    29     5    1
    33    30     6    1
    34     8    31    1
    35    32     8    1
    36     9    33    1
    37    34     9    1
    38    35    10    1
    39    36    15    1
    40    37    15    1
    41    38    22    1
    42    39    23    1
    43    40    24    1
