@<TRIPOS>MOLECULE
5OM1_T4E_A1201
 21 23 0 0 0
SMALL
GASTEIGER

@<TRIPOS>ATOM
      1 N           0.3060   97.8310   52.8590 N.ar    1  UNL1       -0.1092
      2 N           1.2100   96.9950   53.1630 N.ar    1  UNL1       -0.1436
      3 C           1.2180   95.6550   52.7840 C.ar    1  UNL1        0.1206
      4 C           0.0790   95.2300   51.9880 C.ar    1  UNL1        0.1036
      5 N          -0.9110   96.1240   51.6470 N.ar    1  UNL1       -0.2083
      6 C          -0.8070   97.4410   52.0860 C.ar    1  UNL1        0.2751
      7 C           4.5080   93.0260   54.1340 C.ar    1  UNL1        0.2061
      8 C           4.7770   94.2800   53.5520 C.ar    1  UNL1        0.0430
      9 C           3.7090   95.1320   53.1100 C.ar    1  UNL1        0.0049
     10 C           2.3460   94.7580   53.2340 C.ar    1  UNL1        0.0219
     11 C           2.1230   93.5000   53.8360 C.ar    1  UNL1        0.0162
     12 C           3.1780   92.6860   54.2480 C.ar    1  UNL1        0.0965
     13 C          -0.5480   91.1580   50.4930 C.ar    1  UNL1        0.0000
     14 C           0.7430   91.7400   50.4510 C.ar    1  UNL1        0.0000
     15 C           0.9320   93.0660   50.9280 C.ar    1  UNL1        0.0015
     16 C          -0.1270   93.8130   51.4720 C.ar    1  UNL1        0.0193
     17 C          -1.3940   93.2170   51.5000 C.ar    1  UNL1        0.0015
     18 C          -1.6110   91.8990   51.0220 C.ar    1  UNL1        0.0000
     19 N          -1.7970   98.3610   51.7550 N.pl3   1  UNL1       -0.0847
     20 CL          2.7220   91.1470   54.9610 Cl      1  UNL1       -0.0789
     21 O           5.5140   92.2070   54.5520 O.3     1  UNL1       -0.2857
@<TRIPOS>BOND
     1     2     1   ar
     2     3     2   ar
     3     4     3   ar
     4     5     4   ar
     5     6     5   ar
     6     6     1   ar
     7     8     7   ar
     8     9     8   ar
     9    10     9   ar
    10    10     3    1
    11    11    10   ar
    12    12    11   ar
    13    12     7   ar
    14    14    13   ar
    15    15    14   ar
    16    16    15   ar
    17    16     4    1
    18    17    16   ar
    19    18    13   ar
    20    18    17   ar
    21    19     6    1
    22    20    12    1
    23    21     7    1
