@<TRIPOS>MOLECULE
5OM4_T4E_A1201
 21 23 0 0 0
SMALL
GASTEIGER

@<TRIPOS>ATOM
      1 N           0.3750   97.7160   52.9030 N.ar    1  UNL1       -0.1092
      2 N           1.2750   96.8810   53.2030 N.ar    1  UNL1       -0.1436
      3 C           1.2710   95.5430   52.8270 C.ar    1  UNL1        0.1206
      4 C           0.1190   95.1160   52.0490 C.ar    1  UNL1        0.1036
      5 N          -0.8710   96.0170   51.7190 N.ar    1  UNL1       -0.2083
      6 C          -0.7520   97.3310   52.1560 C.ar    1  UNL1        0.2751
      7 C           4.5070   92.8860   54.1730 C.ar    1  UNL1        0.2061
      8 C           4.8050   94.1280   53.5610 C.ar    1  UNL1        0.0430
      9 C           3.7550   95.0020   53.1110 C.ar    1  UNL1        0.0049
     10 C           2.3820   94.6530   53.2690 C.ar    1  UNL1        0.0219
     11 C           2.1340   93.4060   53.9110 C.ar    1  UNL1        0.0162
     12 C           3.1760   92.5820   54.3220 C.ar    1  UNL1        0.0965
     13 C          -0.5600   91.0490   50.5840 C.ar    1  UNL1        0.0000
     14 C           0.7440   91.6040   50.5620 C.ar    1  UNL1        0.0000
     15 C           0.9500   92.9270   51.0240 C.ar    1  UNL1        0.0015
     16 C          -0.1050   93.7020   51.5430 C.ar    1  UNL1        0.0193
     17 C          -1.3810   93.1340   51.5550 C.ar    1  UNL1        0.0015
     18 C          -1.6130   91.8170   51.0920 C.ar    1  UNL1        0.0000
     19 N          -1.7410   98.2580   51.8450 N.pl3   1  UNL1       -0.0847
     20 CL          2.7270   91.0790   55.0590 Cl      1  UNL1       -0.0789
     21 O           5.4760   92.0520   54.5920 O.3     1  UNL1       -0.2857
@<TRIPOS>BOND
     1     2     1   ar
     2     3     2   ar
     3     4     3   ar
     4     5     4   ar
     5     6     5   ar
     6     6     1   ar
     7     8     7   ar
     8     9     8   ar
     9    10     9   ar
    10    10     3    1
    11    11    10   ar
    12    12    11   ar
    13    12     7   ar
    14    14    13   ar
    15    15    14   ar
    16    16    15   ar
    17    16     4    1
    18    17    16   ar
    19    18    13   ar
    20    18    17   ar
    21    19     6    1
    22    20    12    1
    23    21     7    1
