@<TRIPOS>MOLECULE
5OM4_T4E_A1201
 21 23 0 0 0
SMALL
GASTEIGER

@<TRIPOS>ATOM
      1 N           0.3260   97.8410   52.8870 N.ar    1  UNL1       -0.1092
      2 N           1.2340   97.0130   53.1780 N.ar    1  UNL1       -0.1436
      3 C           1.2450   95.6800   52.7860 C.ar    1  UNL1        0.1206
      4 C           0.0970   95.2490   52.0030 C.ar    1  UNL1        0.1036
      5 N          -0.9030   96.1430   51.6830 N.ar    1  UNL1       -0.2083
      6 C          -0.7980   97.4530   52.1350 C.ar    1  UNL1        0.2751
      7 C           4.5090   93.0420   54.1020 C.ar    1  UNL1        0.2061
      8 C           4.7940   94.2940   53.5050 C.ar    1  UNL1        0.0430
      9 C           3.7340   95.1620   53.0640 C.ar    1  UNL1        0.0049
     10 C           2.3650   94.7960   53.2180 C.ar    1  UNL1        0.0219
     11 C           2.1310   93.5400   53.8450 C.ar    1  UNL1        0.0162
     12 C           3.1820   92.7220   54.2480 C.ar    1  UNL1        0.0965
     13 C          -0.5380   91.1920   50.4920 C.ar    1  UNL1        0.0000
     14 C           0.7590   91.7610   50.4760 C.ar    1  UNL1        0.0000
     15 C           0.9510   93.0810   50.9540 C.ar    1  UNL1        0.0015
     16 C          -0.1120   93.8390   51.4810 C.ar    1  UNL1        0.0193
     17 C          -1.3820   93.2560   51.4860 C.ar    1  UNL1        0.0015
     18 C          -1.6000   91.9430   51.0080 C.ar    1  UNL1        0.0000
     19 N          -1.7970   98.3730   51.8360 N.pl3   1  UNL1       -0.0847
     20 CL          2.7490   91.2050   54.9670 Cl      1  UNL1       -0.0789
     21 O           5.4870   92.2140   54.5110 O.3     1  UNL1       -0.2857
@<TRIPOS>BOND
     1     2     1   ar
     2     3     2   ar
     3     4     3   ar
     4     5     4   ar
     5     6     5   ar
     6     6     1   ar
     7     8     7   ar
     8     9     8   ar
     9    10     9   ar
    10    10     3    1
    11    11    10   ar
    12    12    11   ar
    13    12     7   ar
    14    14    13   ar
    15    15    14   ar
    16    16    15   ar
    17    16     4    1
    18    17    16   ar
    19    18    13   ar
    20    18    17   ar
    21    19     6    1
    22    20    12    1
    23    21     7    1
