@<TRIPOS>MOLECULE
5UVI_ZMA_A1201
 25 28 0 0 0
SMALL
GASTEIGER

@<TRIPOS>ATOM
      1 C           1.5370  103.2940   54.9460 C.ar    1  UNL1       -0.0009
      2 C           1.1050  104.6150   54.9320 C.ar    1  UNL1        0.0417
      3 C          -0.2110  104.9200   55.2590 C.ar    1  UNL1        0.1957
      4 O          -0.6330  106.2160   55.2460 O.3     1  UNL1       -0.2866
      5 C          -1.0960  103.9040   55.6010 C.ar    1  UNL1        0.0417
      6 C          -0.6650  102.5830   55.6130 C.ar    1  UNL1       -0.0009
      7 C           0.6520  102.2780   55.2860 C.ar    1  UNL1       -0.0202
      8 C           1.1200  100.8400   55.3000 C.3     1  UNL1        0.0498
      9 C           2.0670  100.6030   54.1310 C.3     1  UNL1        0.1200
     10 N           2.4020   99.2010   53.9790 N.pl3   1  UNL1       -0.2034
     11 C           1.5090   98.3490   53.4290 C.ar    1  UNL1        0.2415
     12 N           1.8420   97.0540   53.2080 N.ar    1  UNL1       -0.1757
     13 N           0.2650   98.7800   53.0890 N.ar    1  UNL1       -0.1769
     14 C          -0.6490   97.9400   52.5340 C.ar    1  UNL1        0.2627
     15 N          -1.8840   98.3910   52.2030 N.pl3   1  UNL1       -0.0858
     16 N          -0.3130   96.6640   52.3190 N.ar    1  UNL1       -0.1614
     17 N          -1.1220   95.6750   51.7630 N.ar    1  UNL1       -0.1374
     18 C           0.9010   96.2500   52.6530 C.ar    1  UNL1        0.2594
     19 N           0.9880   94.9370   52.3370 N.ar    1  UNL1       -0.1861
     20 C          -0.2360   94.6540   51.8170 C.ar    1  UNL1        0.2196
     21 C          -0.5840   93.2890   51.3290 C.ar    1  UNL1        0.1828
     22 C           0.3090   92.2410   51.3580 C.ar    1  UNL1        0.0440
     23 C          -0.4190   91.1920   50.8240 C.ar    1  UNL1        0.0439
     24 C          -1.6960   91.6390   50.4990 C.ar    1  UNL1        0.1798
     25 O          -1.8070   92.9810   50.8210 O.2     1  UNL1       -0.4472
@<TRIPOS>BOND
     1     2     1   ar
     2     3     2   ar
     3     4     3    1
     4     5     3   ar
     5     6     5   ar
     6     7     6   ar
     7     7     1   ar
     8     8     7    1
     9     9     8    1
    10    10     9    1
    11    11    10    1
    12    12    11   ar
    13    13    11   ar
    14    14    13   ar
    15    15    14    1
    16    16    14   ar
    17    17    16   ar
    18    18    16   ar
    19    18    12   ar
    20    19    18   ar
    21    20    19   ar
    22    20    17   ar
    23    21    20    1
    24    22    21   ar
    25    23    22   ar
    26    24    23   ar
    27    25    24   ar
    28    25    21   ar
