@<TRIPOS>MOLECULE
5WF6_UKA_A1201
 57 63 0 0 0
SMALL
GASTEIGER

@<TRIPOS>ATOM
      1 C           3.0540   92.7530   53.4140 C.3     1  UNL1        0.2342
      2 N           1.8520   94.4360   51.9970 N.ar    1  UNL1       -0.2693
      3 O           3.0800   92.6900   51.0590 O.3     1  UNL1       -0.3238
      4 C           2.2590   91.5280   52.9600 C.3     1  UNL1        0.2225
      5 N           1.9430   89.9450   49.7260 N.am    1  UNL1       -0.2033
      6 O           2.5770   90.3720   53.7270 O.3     1  UNL1       -0.2171
      7 C           2.7360   91.3700   51.5110 C.3     1  UNL1        0.2273
      8 N          -0.2320   95.0430   51.4110 N.ar    1  UNL1       -0.2193
      9 O           4.3920   92.4250   53.7760 O.3     1  UNL1       -0.2155
     10 C           3.0390   93.5980   52.1430 C.3     1  UNL1        0.2413
     11 N           0.9410   98.2210   52.9270 N.ar    1  UNL1       -0.2046
     12 O           0.4260   91.1230   50.9110 O.2     1  UNL1       -0.2706
     13 C           1.5900   90.7960   50.6890 C.2     1  UNL1        0.2713
     14 N           2.5970   96.5140   53.0090 N.ar    1  UNL1       -0.2035
     15 O           4.2360   98.1810   54.3420 O.2     1  UNL1       -0.2650
     16 C           1.0060   89.3360   48.7880 C.3     1  UNL1        0.1153
     17 N          -1.1710   97.9160   51.9990 N.pl3   1  UNL1       -0.2182
     18 O           2.1630  103.3410   56.5500 O.2     1  UNL1       -0.2492
     19 C          -0.0020   88.4860   49.4810 C.3     1  UNL1        0.0253
     20 N           2.6960   99.8240   54.3910 N.am    1  UNL1       -0.1972
     21 C           0.6620   94.0840   51.4160 C.ar    1  UNL1        0.1816
     22 N           2.6170  102.7820   54.4110 N.am    1  UNL1       -0.1853
     23 C           0.4160   96.1000   52.0340 C.ar    1  UNL1        0.1500
     24 N           0.9640  104.2700   54.8680 N.am    1  UNL1       -0.1889
     25 C           1.6980   95.7380   52.4000 C.ar    1  UNL1        0.1691
     26 N          -2.4220  106.2240   56.4940 N.pl3   1  UNL1       -0.2931
     27 C           0.0360   97.4270   52.3210 C.ar    1  UNL1        0.1701
     28 N          -4.1000  107.1390   55.1980 N.ar    1  UNL1       -0.2292
     29 C           2.1530   97.7500   53.2560 C.ar    1  UNL1        0.2211
     30 C          -1.4540   99.3310   51.8120 C.3     1  UNL1        0.1225
     31 C          -1.1730  100.3330   52.9330 C.3     1  UNL1        0.0662
     32 C          -1.1400   99.7570   54.3430 C.ar    1  UNL1       -0.0167
     33 C          -2.1250  101.5200   52.8640 C.ar    1  UNL1       -0.0167
     34 C          -0.2740  100.2890   55.2870 C.ar    1  UNL1       -0.0039
     35 C          -0.2210   99.7700   56.5670 C.ar    1  UNL1       -0.0003
     36 C          -1.0340   98.7170   56.9230 C.ar    1  UNL1       -0.0000
     37 C          -1.9060   98.1860   55.9980 C.ar    1  UNL1       -0.0003
     38 C          -1.9610   98.7030   54.7160 C.ar    1  UNL1       -0.0039
     39 C          -1.6370  102.8190   52.8230 C.ar    1  UNL1       -0.0039
     40 C          -2.5050  103.8960   52.8090 C.ar    1  UNL1       -0.0003
     41 C          -3.8660  103.6930   52.8340 C.ar    1  UNL1       -0.0000
     42 C          -4.3630  102.4100   52.8690 C.ar    1  UNL1       -0.0003
     43 C          -3.5000  101.3280   52.8820 C.ar    1  UNL1       -0.0039
     44 C           3.1250   98.6090   54.0400 C.2     1  UNL1        0.3009
     45 C           3.4130  100.6540   55.3480 C.3     1  UNL1        0.1390
     46 C           3.7910  101.9900   54.7440 C.3     1  UNL1        0.1402
     47 C           1.9290  103.4570   55.3510 C.2     1  UNL1        0.3392
     48 C           0.1280  105.0970   55.7320 C.3     1  UNL1        0.1004
     49 C          -0.9340  104.2640   56.4200 C.3     1  UNL1        0.0432
     50 C          -1.8160  105.1510   57.2870 C.3     1  UNL1        0.0939
     51 C          -1.4040  107.0590   55.8460 C.3     1  UNL1        0.0939
     52 C          -0.5070  106.2240   54.9420 C.3     1  UNL1        0.0432
     53 C          -4.6000  105.1830   56.4970 C.ar    1  UNL1        0.0343
     54 C          -5.9020  105.2120   56.0320 C.ar    1  UNL1        0.0045
     55 C          -6.3000  106.1950   55.1600 C.ar    1  UNL1        0.0208
     56 C          -5.3700  107.1320   54.7730 C.ar    1  UNL1        0.1003
     57 C          -3.7260  106.1760   56.0520 C.ar    1  UNL1        0.1317
@<TRIPOS>BOND
     1     4     1    1
     2     4     6    1
     3     7     4    1
     4     7     3    1
     5     1     9    1
     6    10     3    1
     7    10     2    1
     8    10     1    1
     9    13    12    2
    10     7    13    1
    11    13     5   am
    12    16     5    1
    13    19    16    1
    14    21     8   ar
    15    21     2   ar
    16    23     8   ar
    17    25    23   ar
    18    25    14   ar
    19    25     2   ar
    20    27    23   ar
    21    27    17    1
    22    27    11   ar
    23    29    14   ar
    24    29    11   ar
    25    30    17    1
    26    31    30    1
    27    32    31    1
    28    33    31    1
    29    34    32   ar
    30    35    34   ar
    31    36    35   ar
    32    37    36   ar
    33    38    32   ar
    34    38    37   ar
    35    39    33   ar
    36    40    39   ar
    37    41    40   ar
    38    42    41   ar
    39    43    42   ar
    40    43    33   ar
    41    44    29    1
    42    44    20   am
    43    44    15    2
    44    45    20    1
    45    46    22    1
    46    46    45    1
    47    47    22   am
    48    47    18    2
    49    47    24   am
    50    48    24    1
    51    49    48    1
    52    50    49    1
    53    50    26    1
    54    51    26    1
    55    52    51    1
    56    52    48    1
    57    54    53   ar
    58    55    54   ar
    59    56    55   ar
    60    56    28   ar
    61    57    53   ar
    62    57    28   ar
    63    57    26    1
