@<TRIPOS>MOLECULE
5WF6_UKA_A1201
 57 63 0 0 0
SMALL
GASTEIGER

@<TRIPOS>ATOM
      1 C           2.7210   92.3810   53.5310 C.3     1  UNL1        0.2342
      2 N           1.5820   94.0980   52.1030 N.ar    1  UNL1       -0.2693
      3 O           2.7630   92.3140   51.1760 O.3     1  UNL1       -0.3238
      4 C           1.8930   91.1810   53.0730 C.3     1  UNL1        0.2225
      5 N           1.5510   89.6040   49.8380 N.am    1  UNL1       -0.2033
      6 O           2.1690   90.0160   53.8430 O.3     1  UNL1       -0.2171
      7 C           2.3750   91.0060   51.6270 C.3     1  UNL1        0.2273
      8 N          -0.4780   94.7680   51.5020 N.ar    1  UNL1       -0.2193
      9 O           4.0460   92.0130   53.9020 O.3     1  UNL1       -0.2155
     10 C           2.7410   93.2250   52.2590 C.3     1  UNL1        0.2413
     11 N           0.7800   97.9110   53.0220 N.ar    1  UNL1       -0.2046
     12 O           0.0630   90.8280   51.0110 O.2     1  UNL1       -0.2706
     13 C           1.2170   90.4660   50.7980 C.2     1  UNL1        0.2713
     14 N           2.3830   96.1540   53.1180 N.ar    1  UNL1       -0.2035
     15 O           4.0620   97.7720   54.4610 O.2     1  UNL1       -0.2650
     16 C           0.6020   89.0220   48.8950 C.3     1  UNL1        0.1153
     17 N          -1.3340   97.6690   52.0790 N.pl3   1  UNL1       -0.2182
     18 O           2.1330  102.9960   56.6480 O.2     1  UNL1       -0.2492
     19 C          -0.4360   88.2050   49.5810 C.3     1  UNL1        0.0253
     20 N           2.5730   99.4610   54.4970 N.am    1  UNL1       -0.1972
     21 C           0.3850   93.7820   51.5140 C.ar    1  UNL1        0.1816
     22 N           2.5840  102.4200   54.5120 N.am    1  UNL1       -0.1853
     23 C           0.1970   95.8060   52.1280 C.ar    1  UNL1        0.1500
     24 N           0.9740  103.9590   54.9560 N.am    1  UNL1       -0.1889
     25 C           1.4650   95.4040   52.5040 C.ar    1  UNL1        0.1691
     26 N          -2.3610  106.0180   56.5550 N.pl3   1  UNL1       -0.2931
     27 C          -0.1440   97.1440   52.4110 C.ar    1  UNL1        0.1701
     28 N          -4.0010  106.9820   55.2470 N.ar    1  UNL1       -0.2292
     29 C           1.9750   97.4030   53.3600 C.ar    1  UNL1        0.2211
     30 C          -1.5720   99.0920   51.8880 C.3     1  UNL1        0.1225
     31 C          -1.2670  100.0860   53.0110 C.3     1  UNL1        0.0662
     32 C          -1.2620   99.5110   54.4210 C.ar    1  UNL1       -0.0167
     33 C          -2.1830  101.3020   52.9330 C.ar    1  UNL1       -0.0167
     34 C          -0.3870  100.0180   55.3710 C.ar    1  UNL1       -0.0039
     35 C          -0.3590   99.4990   56.6520 C.ar    1  UNL1       -0.0003
     36 C          -1.2060   98.4730   57.0040 C.ar    1  UNL1       -0.0000
     37 C          -2.0880   97.9680   56.0730 C.ar    1  UNL1       -0.0003
     38 C          -2.1180   98.4840   54.7900 C.ar    1  UNL1       -0.0039
     39 C          -1.6550  102.5850   52.8940 C.ar    1  UNL1       -0.0039
     40 C          -2.4890  103.6890   52.8730 C.ar    1  UNL1       -0.0003
     41 C          -3.8560  103.5270   52.8890 C.ar    1  UNL1       -0.0000
     42 C          -4.3920  102.2600   52.9210 C.ar    1  UNL1       -0.0003
     43 C          -3.5620  101.1530   52.9420 C.ar    1  UNL1       -0.0039
     44 C           2.9680   98.2340   54.1510 C.2     1  UNL1        0.3009
     45 C           3.3080  100.2710   55.4580 C.3     1  UNL1        0.1390
     46 C           3.7310  101.5930   54.8550 C.3     1  UNL1        0.1402
     47 C           1.9110  103.1170   55.4470 C.2     1  UNL1        0.3392
     48 C           0.1590  104.8120   55.8130 C.3     1  UNL1        0.1004
     49 C          -0.9340  104.0130   56.4950 C.3     1  UNL1        0.0432
     50 C          -1.7940  104.9280   57.3540 C.3     1  UNL1        0.0939
     51 C          -1.3130  106.8210   55.9130 C.3     1  UNL1        0.0939
     52 C          -0.4360  105.9570   55.0170 C.3     1  UNL1        0.0432
     53 C          -4.5700  105.0440   56.5440 C.ar    1  UNL1        0.0343
     54 C          -5.8670  105.1120   56.0700 C.ar    1  UNL1        0.0045
     55 C          -6.2290  106.1060   55.1940 C.ar    1  UNL1        0.0208
     56 C          -5.2680  107.0130   54.8130 C.ar    1  UNL1        0.1003
     57 C          -3.6630  106.0100   56.1040 C.ar    1  UNL1        0.1317
@<TRIPOS>BOND
     1     4     1    1
     2     4     6    1
     3     7     4    1
     4     7     3    1
     5     1     9    1
     6    10     3    1
     7    10     1    1
     8    10     2    1
     9    13    12    2
    10     7    13    1
    11    13     5   am
    12    16     5    1
    13    19    16    1
    14    21     8   ar
    15    21     2   ar
    16    23     8   ar
    17    25    23   ar
    18    25    14   ar
    19    25     2   ar
    20    27    23   ar
    21    27    17    1
    22    27    11   ar
    23    29    14   ar
    24    29    11   ar
    25    30    17    1
    26    31    30    1
    27    32    31    1
    28    33    31    1
    29    34    32   ar
    30    35    34   ar
    31    36    35   ar
    32    37    36   ar
    33    38    37   ar
    34    38    32   ar
    35    39    33   ar
    36    40    39   ar
    37    41    40   ar
    38    42    41   ar
    39    43    42   ar
    40    43    33   ar
    41    44    29    1
    42    44    15    2
    43    44    20   am
    44    45    20    1
    45    46    45    1
    46    46    22    1
    47    47    22   am
    48    47    18    2
    49    47    24   am
    50    48    24    1
    51    49    48    1
    52    50    49    1
    53    50    26    1
    54    51    26    1
    55    52    51    1
    56    52    48    1
    57    54    53   ar
    58    55    54   ar
    59    56    55   ar
    60    56    28   ar
    61    57    53   ar
    62    57    28   ar
    63    57    26    1
