@<TRIPOS>MOLECULE
6AQF_ZMA_A1201
 25 28 0 0 0
SMALL
GASTEIGER

@<TRIPOS>ATOM
      1 C          -0.4750  102.6340   54.6940 C.ar    1  UNL1       -0.0009
      2 C          -0.8140  103.9840   54.5760 C.ar    1  UNL1        0.0417
      3 C          -0.0010  104.9580   55.1760 C.ar    1  UNL1        0.1957
      4 O          -0.3300  106.2780   55.0670 O.3     1  UNL1       -0.2866
      5 C           1.1520  104.5910   55.8860 C.ar    1  UNL1        0.0417
      6 C           1.4900  103.2410   56.0110 C.ar    1  UNL1       -0.0009
      7 C           0.6760  102.2690   55.4100 C.ar    1  UNL1       -0.0202
      8 C           1.0500  100.8120   55.5380 C.3     1  UNL1        0.0498
      9 C           1.9530  100.4080   54.3780 C.3     1  UNL1        0.1200
     10 N           2.1680   98.9790   54.3440 N.pl3   1  UNL1       -0.2034
     11 C           1.3570   98.1470   53.6480 C.ar    1  UNL1        0.2415
     12 N           1.7510   96.8550   53.4660 N.ar    1  UNL1       -0.1757
     13 N           0.1690   98.5820   53.1310 N.ar    1  UNL1       -0.1769
     14 C          -0.6410   97.7480   52.4340 C.ar    1  UNL1        0.2627
     15 N          -1.8110   98.2160   51.9390 N.pl3   1  UNL1       -0.0858
     16 N          -0.2460   96.4710   52.2590 N.ar    1  UNL1       -0.1614
     17 N          -0.9430   95.4770   51.5730 N.ar    1  UNL1       -0.1374
     18 C           0.9190   96.0490   52.7650 C.ar    1  UNL1        0.2594
     19 N           1.0730   94.7410   52.4490 N.ar    1  UNL1       -0.1861
     20 C          -0.0580   94.4670   51.7480 C.ar    1  UNL1        0.2196
     21 C          -0.3240   93.1240   51.1920 C.ar    1  UNL1        0.1828
     22 C           0.6440   92.1600   51.0510 C.ar    1  UNL1        0.0440
     23 C          -0.0720   91.0820   50.5560 C.ar    1  UNL1        0.0439
     24 C          -1.4190   91.4210   50.4570 C.ar    1  UNL1        0.1798
     25 O          -1.5860   92.7270   50.8840 O.2     1  UNL1       -0.4472
@<TRIPOS>BOND
     1     2     1   ar
     2     3     2   ar
     3     4     3    1
     4     5     3   ar
     5     6     5   ar
     6     7     6   ar
     7     7     1   ar
     8     8     7    1
     9     9     8    1
    10    10     9    1
    11    11    10    1
    12    12    11   ar
    13    13    11   ar
    14    14    13   ar
    15    15    14    1
    16    16    14   ar
    17    17    16   ar
    18    18    16   ar
    19    18    12   ar
    20    19    18   ar
    21    20    19   ar
    22    20    17   ar
    23    21    20    1
    24    22    21   ar
    25    23    22   ar
    26    24    23   ar
    27    25    24   ar
    28    25    21   ar
