@<TRIPOS>MOLECULE
6GDG_NEC_A400
 22 24 0 0 0
SMALL
GASTEIGER

@<TRIPOS>ATOM
      1 C           1.5760   90.5230   51.1150 C.2     1  UNL1        0.2713
      2 O           0.4300   90.9400   51.2210 O.2     1  UNL1       -0.2706
      3 N           1.8940   89.4610   50.3690 N.am    1  UNL1       -0.2033
      4 C           0.9010   88.7050   49.6270 C.3     1  UNL1        0.1153
      5 C           1.5090   87.4690   49.0040 C.3     1  UNL1        0.0253
      6 C           2.7100   91.2160   51.8280 C.3     1  UNL1        0.2273
      7 O           2.9490   92.4820   51.2090 O.3     1  UNL1       -0.3238
      8 C           2.4260   91.4670   53.3080 C.3     1  UNL1        0.2225
      9 O           3.2920   90.6690   54.1240 O.3     1  UNL1       -0.2171
     10 C           2.6430   92.9570   53.5260 C.3     1  UNL1        0.2342
     11 O           3.7810   93.2200   54.3570 O.3     1  UNL1       -0.2155
     12 C           2.8460   93.5650   52.1400 C.3     1  UNL1        0.2413
     13 N           1.7300   94.4840   51.7700 N.ar    1  UNL1       -0.2693
     14 C           0.8280   94.3060   50.7780 C.ar    1  UNL1        0.1816
     15 N          -0.0440   95.3470   50.7230 N.ar    1  UNL1       -0.2193
     16 C           0.2930   96.2190   51.6860 C.ar    1  UNL1        0.1518
     17 C          -0.2110   97.5290   52.1780 C.ar    1  UNL1        0.1919
     18 N          -1.2840   98.1250   51.6030 N.pl3   1  UNL1       -0.1054
     19 N           0.4390   98.1050   53.2200 N.ar    1  UNL1       -0.2040
     20 C           1.5110   97.5280   53.8090 C.ar    1  UNL1        0.2016
     21 N           2.0170   96.3400   53.4080 N.ar    1  UNL1       -0.2048
     22 C           1.4660   95.6480   52.3730 C.ar    1  UNL1        0.1692
@<TRIPOS>BOND
     1     2     1    2
     2     3     1   am
     3     4     3    1
     4     5     4    1
     5     6     1    1
     6     7     6    1
     7     8     6    1
     8     8     9    1
     9    10     8    1
    10    10    11    1
    11    12     7    1
    12    12    10    1
    13    12    13    1
    14    14    13   ar
    15    15    14   ar
    16    16    15   ar
    17    17    16   ar
    18    18    17    1
    19    19    17   ar
    20    20    19   ar
    21    21    20   ar
    22    22    21   ar
    23    22    16   ar
    24    22    13   ar
