@<TRIPOS>MOLECULE
6LPJ_ZMA_A2401
 25 28 0 0 0
SMALL
GASTEIGER

@<TRIPOS>ATOM
      1 C           1.5540  103.0130   55.9210 C.ar    1  UNL1       -0.0009
      2 C           1.3230  104.3640   55.7670 C.ar    1  UNL1        0.0417
      3 C           0.1630  104.7790   55.1450 C.ar    1  UNL1        0.1957
      4 O          -0.0610  106.1170   55.0050 O.3     1  UNL1       -0.2866
      5 C          -0.7420  103.8420   54.6580 C.ar    1  UNL1        0.0417
      6 C          -0.4870  102.4990   54.7990 C.ar    1  UNL1       -0.0009
      7 C           0.6470  102.0630   55.4620 C.ar    1  UNL1       -0.0202
      8 C           0.9930  100.6120   55.5270 C.3     1  UNL1        0.0498
      9 C           1.9440  100.3630   54.3820 C.3     1  UNL1        0.1200
     10 N           2.1990   98.9590   54.1930 N.pl3   1  UNL1       -0.2034
     11 C           1.3730   98.1390   53.5180 C.ar    1  UNL1        0.2415
     12 N           1.8070   96.8850   53.4110 N.ar    1  UNL1       -0.1757
     13 N           0.1830   98.6590   53.0660 N.ar    1  UNL1       -0.1769
     14 C          -0.6610   97.8220   52.4330 C.ar    1  UNL1        0.2627
     15 N          -1.8040   98.2930   51.9440 N.pl3   1  UNL1       -0.0858
     16 N          -0.2610   96.5280   52.2900 N.ar    1  UNL1       -0.1614
     17 N          -0.9130   95.5040   51.6920 N.ar    1  UNL1       -0.1374
     18 C           0.9480   96.0940   52.7590 C.ar    1  UNL1        0.2594
     19 N           1.0870   94.8150   52.4930 N.ar    1  UNL1       -0.1861
     20 C          -0.0730   94.5240   51.8100 C.ar    1  UNL1        0.2196
     21 C          -0.4070   93.2150   51.3160 C.ar    1  UNL1        0.1828
     22 C           0.3240   92.1060   51.1220 C.ar    1  UNL1        0.0440
     23 C          -0.5840   91.1290   50.6320 C.ar    1  UNL1        0.0439
     24 C          -1.7790   91.7250   50.5680 C.ar    1  UNL1        0.1798
     25 O          -1.7020   93.0140   50.9640 O.2     1  UNL1       -0.4472
@<TRIPOS>BOND
     1     2     1   ar
     2     3     2   ar
     3     4     3    1
     4     5     3   ar
     5     6     5   ar
     6     7     6   ar
     7     7     1   ar
     8     8     7    1
     9     9     8    1
    10    10     9    1
    11    11    10    1
    12    12    11   ar
    13    13    11   ar
    14    14    13   ar
    15    15    14    1
    16    16    14   ar
    17    17    16   ar
    18    18    16   ar
    19    18    12   ar
    20    19    18   ar
    21    20    19   ar
    22    20    17   ar
    23    21    20    1
    24    22    21   ar
    25    23    22   ar
    26    24    23   ar
    27    25    24   ar
    28    25    21   ar
