@<TRIPOS>MOLECULE
6LPL_ZMA_A2401
 25 28 0 0 0
SMALL
GASTEIGER

@<TRIPOS>ATOM
      1 C           1.4850  103.0630   55.8730 C.ar    1  UNL1       -0.0009
      2 C           1.2460  104.4080   55.6730 C.ar    1  UNL1        0.0417
      3 C           0.0890  104.7800   55.0040 C.ar    1  UNL1        0.1957
      4 O          -0.1220  106.0970   54.7590 O.3     1  UNL1       -0.2866
      5 C          -0.8030  103.8210   54.5260 C.ar    1  UNL1        0.0417
      6 C          -0.5390  102.4840   54.7360 C.ar    1  UNL1       -0.0009
      7 C           0.5710  102.0950   55.4570 C.ar    1  UNL1       -0.0202
      8 C           0.9430  100.6520   55.5530 C.3     1  UNL1        0.0498
      9 C           1.9220  100.4210   54.4040 C.3     1  UNL1        0.1200
     10 N           2.1880   99.0160   54.1500 N.pl3   1  UNL1       -0.2034
     11 C           1.3870   98.1980   53.4670 C.ar    1  UNL1        0.2415
     12 N           1.8200   96.9260   53.3980 N.ar    1  UNL1       -0.1757
     13 N           0.1830   98.6730   53.0350 N.ar    1  UNL1       -0.1769
     14 C          -0.6250   97.8100   52.4150 C.ar    1  UNL1        0.2627
     15 N          -1.7860   98.2440   51.9460 N.pl3   1  UNL1       -0.0858
     16 N          -0.2360   96.5090   52.2790 N.ar    1  UNL1       -0.1614
     17 N          -0.8800   95.4840   51.6710 N.ar    1  UNL1       -0.1374
     18 C           0.9720   96.1040   52.7330 C.ar    1  UNL1        0.2594
     19 N           1.1340   94.8060   52.4880 N.ar    1  UNL1       -0.1861
     20 C          -0.0060   94.4840   51.8010 C.ar    1  UNL1        0.2196
     21 C          -0.2970   93.1720   51.3050 C.ar    1  UNL1        0.1828
     22 C           0.5200   92.1030   51.0910 C.ar    1  UNL1        0.0440
     23 C          -0.3230   91.0800   50.5780 C.ar    1  UNL1        0.0439
     24 C          -1.5960   91.6020   50.5530 C.ar    1  UNL1        0.1798
     25 O          -1.6030   92.9020   50.9620 O.2     1  UNL1       -0.4472
@<TRIPOS>BOND
     1     2     1   ar
     2     3     2   ar
     3     4     3    1
     4     5     3   ar
     5     6     5   ar
     6     7     6   ar
     7     7     1   ar
     8     8     7    1
     9     9     8    1
    10    10     9    1
    11    11    10    1
    12    12    11   ar
    13    13    11   ar
    14    14    13   ar
    15    15    14    1
    16    16    14   ar
    17    17    16   ar
    18    18    16   ar
    19    18    12   ar
    20    19    18   ar
    21    20    19   ar
    22    20    17   ar
    23    21    20    1
    24    22    21   ar
    25    23    22   ar
    26    24    23   ar
    27    25    24   ar
    28    25    21   ar
