@<TRIPOS>MOLECULE
6S0Q_ZMA_A1201
 25 28 0 0 0
SMALL
GASTEIGER

@<TRIPOS>ATOM
      1 C           1.4900  102.9820   55.9080 C.ar    1  UNL1       -0.0009
      2 C           1.2340  104.3440   55.7750 C.ar    1  UNL1        0.0417
      3 C           0.0240  104.7110   55.1940 C.ar    1  UNL1        0.1957
      4 O          -0.2890  106.0670   55.0390 O.3     1  UNL1       -0.2866
      5 C          -0.8850  103.7500   54.7490 C.ar    1  UNL1        0.0417
      6 C          -0.6240  102.3940   54.8860 C.ar    1  UNL1       -0.0009
      7 C           0.5610  102.0220   55.4850 C.ar    1  UNL1       -0.0202
      8 C           0.9170  100.5610   55.6130 C.3     1  UNL1        0.0498
      9 C           1.7970  100.4060   54.3740 C.3     1  UNL1        0.1200
     10 N           2.2880   99.0680   54.2620 N.pl3   1  UNL1       -0.2034
     11 C           1.4370   98.1580   53.5510 C.ar    1  UNL1        0.2415
     12 N           1.8050   96.9000   53.3740 N.ar    1  UNL1       -0.1757
     13 N           0.2700   98.5990   53.0970 N.ar    1  UNL1       -0.1769
     14 C          -0.5230   97.7660   52.4510 C.ar    1  UNL1        0.2627
     15 N          -1.7890   98.2180   51.9370 N.pl3   1  UNL1       -0.0858
     16 N          -0.1480   96.4990   52.2570 N.ar    1  UNL1       -0.1614
     17 N          -0.7810   95.4900   51.6340 N.ar    1  UNL1       -0.1374
     18 C           0.9970   96.0620   52.7060 C.ar    1  UNL1        0.2594
     19 N           1.1140   94.7560   52.3900 N.ar    1  UNL1       -0.1861
     20 C          -0.0030   94.4320   51.7170 C.ar    1  UNL1        0.2196
     21 C          -0.2630   93.1660   51.2350 C.ar    1  UNL1        0.1828
     22 C           0.6500   92.1830   50.9110 C.ar    1  UNL1        0.0440
     23 C          -0.0780   91.1090   50.4760 C.ar    1  UNL1        0.0439
     24 C          -1.4280   91.4330   50.5360 C.ar    1  UNL1        0.1798
     25 O          -1.5350   92.7180   51.0110 O.2     1  UNL1       -0.4472
@<TRIPOS>BOND
     1     2     1   ar
     2     3     2   ar
     3     4     3    1
     4     5     3   ar
     5     6     5   ar
     6     7     6   ar
     7     7     1   ar
     8     8     7    1
     9     9     8    1
    10    10     9    1
    11    11    10    1
    12    12    11   ar
    13    13    11   ar
    14    14    13   ar
    15    15    14    1
    16    16    14   ar
    17    17    16   ar
    18    18    16   ar
    19    18    12   ar
    20    19    18   ar
    21    20    19   ar
    22    20    17   ar
    23    21    20    1
    24    22    21   ar
    25    23    22   ar
    26    24    23   ar
    27    25    24   ar
    28    25    21   ar
