@<TRIPOS>MOLECULE
6WQA_ZMA_A1202
 25 28 0 0 0
SMALL
GASTEIGER

@<TRIPOS>ATOM
      1 C          -0.6080  102.5040   54.8170 C.ar    1  UNL1       -0.0009
      2 C          -0.9320  103.8550   54.6630 C.ar    1  UNL1        0.0417
      3 C          -0.0540  104.8490   55.1260 C.ar    1  UNL1        0.1957
      4 O          -0.3790  106.1680   54.9970 O.3     1  UNL1       -0.2866
      5 C           1.1600  104.5010   55.7330 C.ar    1  UNL1        0.0417
      6 C           1.4850  103.1480   55.8930 C.ar    1  UNL1       -0.0009
      7 C           0.5970  102.1520   55.4450 C.ar    1  UNL1       -0.0202
      8 C           0.9970  100.7010   55.5550 C.3     1  UNL1        0.0498
      9 C           1.8870  100.3660   54.3560 C.3     1  UNL1        0.1200
     10 N           2.2240   98.9530   54.2360 N.pl3   1  UNL1       -0.2034
     11 C           1.4140   98.0940   53.5760 C.ar    1  UNL1        0.2415
     12 N           1.7800   96.7930   53.4090 N.ar    1  UNL1       -0.1757
     13 N           0.2230   98.5370   53.0740 N.ar    1  UNL1       -0.1769
     14 C          -0.6140   97.7150   52.4100 C.ar    1  UNL1        0.2627
     15 N          -1.7860   98.2210   51.9370 N.pl3   1  UNL1       -0.0858
     16 N          -0.2390   96.4300   52.2520 N.ar    1  UNL1       -0.1614
     17 N          -0.9670   95.4390   51.5990 N.ar    1  UNL1       -0.1374
     18 C           0.9180   95.9900   52.7370 C.ar    1  UNL1        0.2594
     19 N           1.0290   94.6740   52.4330 N.ar    1  UNL1       -0.1861
     20 C          -0.1170   94.4120   51.7610 C.ar    1  UNL1        0.2196
     21 C          -0.4770   93.0830   51.2080 C.ar    1  UNL1        0.1828
     22 C           0.3880   92.0180   51.0950 C.ar    1  UNL1        0.0440
     23 C          -0.4380   91.0040   50.6190 C.ar    1  UNL1        0.0439
     24 C          -1.7490   91.4690   50.5500 C.ar    1  UNL1        0.1798
     25 O          -1.7840   92.7870   50.9630 O.2     1  UNL1       -0.4472
@<TRIPOS>BOND
     1     2     1   ar
     2     3     2   ar
     3     4     3    1
     4     5     3   ar
     5     6     5   ar
     6     7     6   ar
     7     7     1   ar
     8     8     7    1
     9     9     8    1
    10    10     9    1
    11    11    10    1
    12    12    11   ar
    13    13    11   ar
    14    14    13   ar
    15    15    14    1
    16    16    14   ar
    17    17    16   ar
    18    18    16   ar
    19    18    12   ar
    20    19    18   ar
    21    20    19   ar
    22    20    17   ar
    23    21    20    1
    24    22    21   ar
    25    23    22   ar
    26    24    23   ar
    27    25    24   ar
    28    25    21   ar
