@<TRIPOS>MOLECULE
6ZDR_QGE_A1201
 24 26 0 0 0
SMALL
GASTEIGER

@<TRIPOS>ATOM
      1 C           2.5110   98.2340   54.0900 C.ar    1  UNL1        0.0050
      2 C           0.3780   94.4610   51.6930 C.ar    1  UNL1        0.1165
      3 C          -0.5060   92.5720   51.0370 C.ar    1  UNL1        0.0664
      4 C           0.8150   92.1270   51.1910 C.ar    1  UNL1        0.0516
      5 C          -0.0250  102.1950   54.6320 C.2     1  UNL1        0.3220
      6 C          -1.0850  101.4740   55.4100 C.3     1  UNL1        0.1216
      7 C           3.5990  100.0720   55.3890 C.3     1  UNL1        0.0295
      8 C           3.4080   99.8870   56.9130 C.3     1  UNL1        0.0048
      9 C           2.0510  100.3460   57.5000 C.3     1  UNL1        0.0004
     10 C          -1.6940   91.7430   50.5820 C.3     1  UNL1        0.0527
     11 C           2.4380   99.5400   54.5320 C.ar    1  UNL1        0.0128
     12 C           1.2750  100.2600   54.2480 C.ar    1  UNL1        0.1475
     13 C           0.2670   99.6890   53.4740 C.ar    1  UNL1        0.0748
     14 C           1.4950   97.6850   53.3120 C.ar    1  UNL1        0.0735
     15 C           0.3480   98.3810   53.0600 C.ar    1  UNL1        0.1515
     16 C          -0.6430   96.6290   51.9750 C.ar    1  UNL1        0.1846
     17 C           0.4370   95.8420   52.1540 C.ar    1  UNL1        0.1003
     18 C           1.6230   96.3060   52.8870 C.ar    1  UNL1        0.2035
     19 N          -0.7120   93.8730   51.2900 N.ar    1  UNL1       -0.2424
     20 O          -0.7180   97.8980   52.3590 O.2     1  UNL1       -0.4500
     21 O           2.6820   95.7130   53.1540 O.2     1  UNL1       -0.2863
     22 O           1.1770  101.5720   54.6480 O.3     1  UNL1       -0.4243
     23 O          -0.2930  103.2550   54.0770 O.2     1  UNL1       -0.2497
     24 S           1.7760   93.4390   51.7620 S.2     1  UNL1       -0.0661
@<TRIPOS>BOND
     1     4     3   ar
     2     6     5    1
     3     8     7    1
     4     9     8    1
     5    10     3    1
     6    11     1   ar
     7    11     7    1
     8    12    11   ar
     9    13    12   ar
    10    14     1   ar
    11    15    14   ar
    12    15    13   ar
    13    17    16   ar
    14    17     2    1
    15    18    17   ar
    16    18    14   ar
    17    19     3   ar
    18    19     2   ar
    19    20    16   ar
    20    20    15   ar
    21    21    18    2
    22    22    12    1
    23    22     5    1
    24    23     5    2
    25    24     4   ar
    26    24     2   ar
