@<TRIPOS>MOLECULE
7ARO_RVZ_A1201
 24 26 0 0 0
SMALL
GASTEIGER

@<TRIPOS>ATOM
      1 C           1.8570   91.8690   52.0170 C.ar    1  UNL1        0.0000
      2 C           2.8130   96.7290   53.4630 C.ar    1  UNL1        0.0926
      3 C           1.5600   99.7080   58.0960 C.ar    1  UNL1        0.1209
      4 C           1.1210  100.9410   57.7350 C.ar    1  UNL1        0.1209
      5 C           0.5740   98.1360   52.9150 C.ar    1  UNL1        0.1798
      6 C           0.5990   96.7970   52.5990 C.ar    1  UNL1        0.1038
      7 C          -0.6300   96.1690   51.9600 C.1     1  UNL1        0.1034
      8 C           1.7520   96.0700   52.8530 C.ar    1  UNL1        0.0241
      9 C           1.8070   94.5770   52.5430 C.ar    1  UNL1        0.0015
     10 C           2.3060   93.6920   53.4840 C.ar    1  UNL1        0.0000
     11 C           2.3620   92.3390   53.2140 C.ar    1  UNL1        0.0000
     12 C           1.3280   92.7450   51.0860 C.ar    1  UNL1        0.0000
     13 C           1.3170   94.1010   51.3400 C.ar    1  UNL1        0.0000
     14 C           4.1250   96.0050   53.7710 C.1     1  UNL1        0.1025
     15 C           2.7060   98.0800   53.7610 C.ar    1  UNL1        0.1182
     16 C           3.8060  100.4770   55.3240 C.3     1  UNL1        0.1290
     17 C           2.7600  100.3880   56.4430 C.ar    1  UNL1        0.1505
     18 N          -0.6390   98.8510   52.5790 N.pl3   1  UNL1       -0.1065
     19 N          -1.5230   95.6750   51.4770 N.1     1  UNL1       -0.1907
     20 N           5.0930   95.4680   53.9970 N.1     1  UNL1       -0.1908
     21 N           2.5830   99.3830   57.3220 N.ar    1  UNL1       -0.2267
     22 N           1.8520  101.3330   56.7230 N.ar    1  UNL1       -0.2267
     23 N           1.6100   98.7590   53.4560 N.ar    1  UNL1       -0.2199
     24 S           4.1540   98.8800   54.5130 S.3     1  UNL1       -0.0861
@<TRIPOS>BOND
     1     4     3   ar
     2     6     5   ar
     3     7     6    1
     4     8     6   ar
     5     8     2   ar
     6     9     8    1
     7    10     9   ar
     8    11     1   ar
     9    11    10   ar
    10    12     1   ar
    11    13    12   ar
    12    13     9   ar
    13    14     2    1
    14    15     2   ar
    15    17    16    1
    16    18     5    1
    17    19     7    3
    18    20    14    3
    19    21    17   ar
    20    21     3   ar
    21    22    17   ar
    22    22     4   ar
    23    23    15   ar
    24    23     5   ar
    25    24    15    1
    26    24    16    1
