@<TRIPOS>MOLECULE
7EZC_UKA_A1200
 57 63 0 0 0
SMALL
GASTEIGER

@<TRIPOS>ATOM
      1 C           2.5420   92.7920   53.3650 C.3     1  UNL1        0.2342
      2 N           1.5790   94.2530   51.8730 N.ar    1  UNL1       -0.2693
      3 O           2.8420   92.2570   51.0420 O.3     1  UNL1       -0.3238
      4 C           2.0340   91.4030   53.0520 C.3     1  UNL1        0.2225
      5 N           1.7060   89.1890   50.0180 N.am    1  UNL1       -0.2033
      6 O           2.5590   90.5040   53.9220 O.3     1  UNL1       -0.2171
      7 C           2.5380   91.1010   51.5850 C.3     1  UNL1        0.2273
      8 N          -0.3100   94.9310   51.0480 N.ar    1  UNL1       -0.2193
      9 O           3.8490   92.7090   54.0660 O.3     1  UNL1       -0.2155
     10 C           2.6950   93.4020   52.1650 C.3     1  UNL1        0.2413
     11 N           0.4780   98.0180   52.8280 N.ar    1  UNL1       -0.2046
     12 O           0.3290   90.8830   50.7580 O.2     1  UNL1       -0.2706
     13 C           1.4240   90.4180   50.7740 C.2     1  UNL1        0.2713
     14 N           2.1060   96.3340   53.0670 N.ar    1  UNL1       -0.2035
     15 O           3.7970   97.7330   54.3620 O.2     1  UNL1       -0.2650
     16 C           0.6300   88.5470   49.2490 C.3     1  UNL1        0.1153
     17 N          -1.4140   98.0650   51.7300 N.pl3   1  UNL1       -0.2182
     18 O           2.5790  103.4090   56.7210 O.2     1  UNL1       -0.2492
     19 C           1.2280   87.4510   48.3420 C.3     1  UNL1        0.0253
     20 N           2.3970   99.4660   54.9620 N.am    1  UNL1       -0.1972
     21 C           0.5420   93.8930   51.1070 C.ar    1  UNL1        0.1816
     22 N           2.6710  102.1880   54.7600 N.am    1  UNL1       -0.1853
     23 C           0.2020   95.9360   51.7810 C.ar    1  UNL1        0.1500
     24 N           0.9110  103.9700   55.2220 N.am    1  UNL1       -0.1889
     25 C           1.3720   95.5150   52.2870 C.ar    1  UNL1        0.1691
     26 N          -2.3510  106.3840   56.3110 N.pl3   1  UNL1       -0.2931
     27 C          -0.2490   97.2180   52.0600 C.ar    1  UNL1        0.1701
     28 N          -3.7370  107.3030   55.3530 N.ar    1  UNL1       -0.2292
     29 C           1.6570   97.5830   53.3370 C.ar    1  UNL1        0.2211
     30 C          -1.4290   99.4930   52.1180 C.3     1  UNL1        0.1225
     31 C          -2.5310   99.7200   53.1930 C.3     1  UNL1        0.0662
     32 C          -3.0050  101.2040   53.2170 C.ar    1  UNL1       -0.0167
     33 C          -1.9930   99.3320   54.5960 C.ar    1  UNL1       -0.0167
     34 C          -4.1030  101.6330   53.9570 C.ar    1  UNL1       -0.0039
     35 C          -4.4730  102.9730   53.9370 C.ar    1  UNL1       -0.0003
     36 C          -3.7450  103.8830   53.1790 C.ar    1  UNL1       -0.0000
     37 C          -2.6460  103.4580   52.4400 C.ar    1  UNL1       -0.0003
     38 C          -2.2760  102.1170   52.4580 C.ar    1  UNL1       -0.0039
     39 C          -1.1140  100.3100   55.0490 C.ar    1  UNL1       -0.0039
     40 C          -0.5050  100.1840   56.2920 C.ar    1  UNL1       -0.0003
     41 C          -0.7800   99.0770   57.0830 C.ar    1  UNL1       -0.0000
     42 C          -1.6570   98.1000   56.6270 C.ar    1  UNL1       -0.0003
     43 C          -2.2690   98.2270   55.3870 C.ar    1  UNL1       -0.0039
     44 C           2.7230   98.2310   54.2420 C.2     1  UNL1        0.3009
     45 C           3.4230  100.0730   55.8200 C.3     1  UNL1        0.1390
     46 C           3.8540  101.4190   55.1870 C.3     1  UNL1        0.1402
     47 C           2.0930  103.2050   55.6550 C.2     1  UNL1        0.3392
     48 C           0.3140  105.0140   56.1270 C.3     1  UNL1        0.1004
     49 C          -0.8460  104.4030   56.8770 C.3     1  UNL1        0.0432
     50 C          -1.8740  105.4350   57.3710 C.3     1  UNL1        0.0939
     51 C          -1.5830  106.2410   55.0210 C.3     1  UNL1        0.0939
     52 C          -0.0710  106.1910   55.2830 C.3     1  UNL1        0.0432
     53 C          -4.9230  105.3940   56.2790 C.ar    1  UNL1        0.0343
     54 C          -6.0690  105.8310   55.6930 C.ar    1  UNL1        0.0045
     55 C          -6.0610  106.9770   54.9510 C.ar    1  UNL1        0.0208
     56 C          -4.8940  107.7190   54.7770 C.ar    1  UNL1        0.1003
     57 C          -3.7870  106.1630   56.0760 C.ar    1  UNL1        0.1317
@<TRIPOS>BOND
     1     4     1    1
     2     4     6    1
     3     7     4    1
     4     7     3    1
     5     1     9    1
     6    10     3    1
     7    10     2    1
     8    10     1    1
     9    13    12    2
    10     7    13    1
    11    13     5   am
    12    16     5    1
    13    19    16    1
    14    21     8   ar
    15    21     2   ar
    16    23     8   ar
    17    25    23   ar
    18    25    14   ar
    19    25     2   ar
    20    27    23   ar
    21    27    17    1
    22    27    11   ar
    23    29    14   ar
    24    29    11   ar
    25    30    17    1
    26    31    30    1
    27    32    31    1
    28    33    31    1
    29    34    32   ar
    30    35    34   ar
    31    36    35   ar
    32    37    36   ar
    33    38    37   ar
    34    38    32   ar
    35    39    33   ar
    36    40    39   ar
    37    41    40   ar
    38    42    41   ar
    39    43    42   ar
    40    43    33   ar
    41    44    29    1
    42    44    15    2
    43    44    20   am
    44    45    20    1
    45    46    45    1
    46    46    22    1
    47    47    22   am
    48    47    18    2
    49    47    24   am
    50    48    24    1
    51    49    48    1
    52    50    49    1
    53    50    26    1
    54    51    26    1
    55    52    51    1
    56    52    48    1
    57    54    53   ar
    58    55    54   ar
    59    56    55   ar
    60    56    28   ar
    61    57    53   ar
    62    57    28   ar
    63    57    26    1
