@<TRIPOS>MOLECULE
7EZC_UKA_B1200
 57 63 0 0 0
SMALL
GASTEIGER

@<TRIPOS>ATOM
      1 C           2.6170   92.8510   53.0390 C.3     1  UNL1        0.2342
      2 N           1.7130   94.5180   51.7100 N.ar    1  UNL1       -0.2693
      3 O           2.9960   92.6370   50.6770 O.3     1  UNL1       -0.3238
      4 C           2.2270   91.4780   52.5350 C.3     1  UNL1        0.2225
      5 N           1.8520   89.4070   49.6070 N.am    1  UNL1       -0.2033
      6 O           2.8200   90.5180   53.2840 O.3     1  UNL1       -0.2171
      7 C           2.7560   91.4010   51.0510 C.3     1  UNL1        0.2273
      8 N          -0.1820   95.2410   50.9300 N.ar    1  UNL1       -0.2193
      9 O           3.8790   92.7620   53.8150 O.3     1  UNL1       -0.2155
     10 C           2.8110   93.6200   51.9410 C.3     1  UNL1        0.2413
     11 N           0.6630   98.2910   52.7410 N.ar    1  UNL1       -0.2046
     12 O           0.6990   91.3800   49.8790 O.2     1  UNL1       -0.2706
     13 C           1.6820   90.7670   50.1460 C.2     1  UNL1        0.2713
     14 N           2.2850   96.5920   52.9360 N.ar    1  UNL1       -0.2035
     15 O           4.0310   98.0790   54.1580 O.2     1  UNL1       -0.2650
     16 C           0.8040   88.8380   48.7450 C.3     1  UNL1        0.1153
     17 N          -1.2510   98.3560   51.6670 N.pl3   1  UNL1       -0.2182
     18 O           2.6540  103.9300   56.8170 O.2     1  UNL1       -0.2492
     19 C           0.7670   87.2970   48.8610 C.3     1  UNL1        0.0253
     20 N           2.5490   99.6550   54.9720 N.am    1  UNL1       -0.1972
     21 C           0.6550   94.1930   50.9560 C.ar    1  UNL1        0.1816
     22 N           2.5010  102.4190   55.0770 N.am    1  UNL1       -0.1853
     23 C           0.3610   96.2240   51.6710 C.ar    1  UNL1        0.1500
     24 N           0.7410  104.2070   55.5560 N.am    1  UNL1       -0.1889
     25 C           1.5340   95.7820   52.1520 C.ar    1  UNL1        0.1691
     26 N          -2.4660  106.6840   56.2710 N.pl3   1  UNL1       -0.2931
     27 C          -0.0790   97.5030   51.9730 C.ar    1  UNL1        0.1701
     28 N          -3.8320  107.2360   55.0170 N.ar    1  UNL1       -0.2292
     29 C           1.8490   97.8460   53.2320 C.ar    1  UNL1        0.2211
     30 C          -1.2840   99.7770   52.0790 C.3     1  UNL1        0.1225
     31 C          -2.4040   99.9820   53.1420 C.3     1  UNL1        0.0662
     32 C          -2.9280  101.4520   53.1430 C.ar    1  UNL1       -0.0167
     33 C          -1.8560   99.6090   54.5470 C.ar    1  UNL1       -0.0167
     34 C          -4.0190  101.8710   53.8980 C.ar    1  UNL1       -0.0039
     35 C          -4.4290  103.1980   53.8510 C.ar    1  UNL1       -0.0003
     36 C          -3.7490  104.1090   53.0500 C.ar    1  UNL1       -0.0000
     37 C          -2.6570  103.6940   52.2950 C.ar    1  UNL1       -0.0003
     38 C          -2.2480  102.3650   52.3420 C.ar    1  UNL1       -0.0039
     39 C          -1.0230  100.6240   55.0080 C.ar    1  UNL1       -0.0039
     40 C          -0.4130  100.5140   56.2530 C.ar    1  UNL1       -0.0003
     41 C          -0.6330   99.3860   57.0350 C.ar    1  UNL1       -0.0000
     42 C          -1.4640   98.3710   56.5720 C.ar    1  UNL1       -0.0003
     43 C          -2.0770   98.4830   55.3300 C.ar    1  UNL1       -0.0039
     44 C           2.9200   98.5030   54.1350 C.2     1  UNL1        0.3009
     45 C           3.5530  100.2910   55.8450 C.3     1  UNL1        0.1390
     46 C           3.7810  101.7670   55.4180 C.3     1  UNL1        0.1402
     47 C           2.0160  103.5490   55.8890 C.2     1  UNL1        0.3392
     48 C           0.2510  105.3630   56.3880 C.3     1  UNL1        0.1004
     49 C          -0.9050  104.8960   57.2420 C.3     1  UNL1        0.0432
     50 C          -1.9910  105.9590   57.4990 C.3     1  UNL1        0.0939
     51 C          -1.5920  106.4220   55.0720 C.3     1  UNL1        0.0939
     52 C          -0.1080  106.4800   55.4580 C.3     1  UNL1        0.0432
     53 C          -4.9700  105.5400   56.3310 C.ar    1  UNL1        0.0343
     54 C          -6.0910  105.7280   55.5870 C.ar    1  UNL1        0.0045
     55 C          -6.0940  106.6470   54.5770 C.ar    1  UNL1        0.0208
     56 C          -4.9620  107.4060   54.2860 C.ar    1  UNL1        0.1003
     57 C          -3.8670  106.3130   56.0050 C.ar    1  UNL1        0.1317
@<TRIPOS>BOND
     1     4     1    1
     2     4     6    1
     3     7     4    1
     4     7     3    1
     5     1     9    1
     6    10     3    1
     7    10     2    1
     8    10     1    1
     9    13    12    2
    10     7    13    1
    11    13     5   am
    12    16     5    1
    13    19    16    1
    14    21     8   ar
    15    21     2   ar
    16    23     8   ar
    17    25    23   ar
    18    25    14   ar
    19    25     2   ar
    20    27    23   ar
    21    27    17    1
    22    27    11   ar
    23    29    14   ar
    24    29    11   ar
    25    30    17    1
    26    31    30    1
    27    32    31    1
    28    33    31    1
    29    34    32   ar
    30    35    34   ar
    31    36    35   ar
    32    37    36   ar
    33    38    32   ar
    34    38    37   ar
    35    39    33   ar
    36    40    39   ar
    37    41    40   ar
    38    42    41   ar
    39    43    42   ar
    40    43    33   ar
    41    44    29    1
    42    44    15    2
    43    44    20   am
    44    45    20    1
    45    46    45    1
    46    46    22    1
    47    47    22   am
    48    47    24   am
    49    47    18    2
    50    48    24    1
    51    49    48    1
    52    50    49    1
    53    50    26    1
    54    51    26    1
    55    52    51    1
    56    52    48    1
    57    54    53   ar
    58    55    54   ar
    59    56    55   ar
    60    56    28   ar
    61    57    53   ar
    62    57    28   ar
    63    57    26    1
