@<TRIPOS>MOLECULE
7INA_TEP_A1235
 13 14 0 0 0
SMALL
GASTEIGER

@<TRIPOS>ATOM
      1 C           1.1340   92.7900   51.2610 C.3     1  UNL1        0.1383
      2 N           1.0520   94.1290   51.8160 N.ar    1  UNL1       -0.2454
      3 C           2.0810   94.6270   52.5430 C.ar    1  UNL1        0.3350
      4 O           3.0480   93.9650   52.7250 O.2     1  UNL1       -0.2461
      5 N           2.0030   95.8750   53.0590 N.ar    1  UNL1       -0.2627
      6 C           3.1090   96.4080   53.8350 C.3     1  UNL1        0.1366
      7 C           0.9070   96.6230   52.8510 C.ar    1  UNL1        0.1716
      8 C          -0.1090   96.1330   52.1370 C.ar    1  UNL1        0.1731
      9 C          -0.0280   94.8630   51.6130 C.ar    1  UNL1        0.2850
     10 O          -0.9250   94.4270   50.9770 O.2     1  UNL1       -0.2651
     11 N          -1.0670   97.0670   52.0800 N.ar    1  UNL1       -0.2160
     12 C          -0.6380   98.1350   52.7610 C.ar    1  UNL1        0.2005
     13 N           0.5800   97.8630   53.2380 N.ar    1  UNL1       -0.2047
@<TRIPOS>BOND
     1     2     1    1
     2     3     2   ar
     3     4     3    2
     4     5     3   ar
     5     6     5    1
     6     7     5   ar
     7     8     7   ar
     8     9     8   ar
     9     9     2   ar
    10    10     9    2
    11    11     8   ar
    12    12    11   ar
    13    13     7   ar
    14    13    12   ar
