@<TRIPOS>MOLECULE
7INB_TEP_A1235
 13 14 0 0 0
SMALL
GASTEIGER

@<TRIPOS>ATOM
      1 C           1.1600   92.8940   51.2180 C.3     1  UNL1        0.1383
      2 N           1.0770   94.2320   51.7740 N.ar    1  UNL1       -0.2454
      3 C           2.1250   94.7540   52.4560 C.ar    1  UNL1        0.3350
      4 O           3.1150   94.1180   52.6030 O.2     1  UNL1       -0.2461
      5 N           2.0410   96.0010   52.9700 N.ar    1  UNL1       -0.2627
      6 C           3.1580   96.5690   53.7030 C.3     1  UNL1        0.1366
      7 C           0.9210   96.7230   52.8040 C.ar    1  UNL1        0.1716
      8 C          -0.1130   96.2120   52.1330 C.ar    1  UNL1        0.1731
      9 C          -0.0260   94.9420   51.6100 C.ar    1  UNL1        0.2850
     10 O          -0.9370   94.4830   51.0120 O.2     1  UNL1       -0.2651
     11 N          -1.0910   97.1280   52.1150 N.ar    1  UNL1       -0.2160
     12 C          -0.6540   98.2040   52.7760 C.ar    1  UNL1        0.2005
     13 N           0.5860   97.9550   53.2040 N.ar    1  UNL1       -0.2047
@<TRIPOS>BOND
     1     2     1    1
     2     3     2   ar
     3     4     3    2
     4     5     3   ar
     5     6     5    1
     6     7     5   ar
     7     8     7   ar
     8     9     8   ar
     9     9     2   ar
    10    10     9    2
    11    11     8   ar
    12    12    11   ar
    13    13     7   ar
    14    13    12   ar
