@<TRIPOS>MOLECULE
7INC_TEP_A1235
 13 14 0 0 0
SMALL
GASTEIGER

@<TRIPOS>ATOM
      1 C           1.0850   92.8700   51.1460 C.3     1  UNL1        0.1383
      2 N           1.0260   94.2020   51.7210 N.ar    1  UNL1       -0.2454
      3 C           2.0750   94.6910   52.4260 C.ar    1  UNL1        0.3350
      4 O           3.0480   94.0340   52.5770 O.2     1  UNL1       -0.2461
      5 N           2.0130   95.9340   52.9590 N.ar    1  UNL1       -0.2627
      6 C           3.1350   96.4640   53.7170 C.3     1  UNL1        0.1366
      7 C           0.9110   96.6840   52.7890 C.ar    1  UNL1        0.1716
      8 C          -0.1260   96.2040   52.0960 C.ar    1  UNL1        0.1731
      9 C          -0.0610   94.9400   51.5530 C.ar    1  UNL1        0.2850
     10 O          -0.9790   94.5130   50.9370 O.2     1  UNL1       -0.2651
     11 N          -1.0820   97.1400   52.0780 N.ar    1  UNL1       -0.2160
     12 C          -0.6350   98.1980   52.7610 C.ar    1  UNL1        0.2005
     13 N           0.5960   97.9200   53.2020 N.ar    1  UNL1       -0.2047
@<TRIPOS>BOND
     1     2     1    1
     2     3     2   ar
     3     4     3    2
     4     5     3   ar
     5     6     5    1
     6     7     5   ar
     7     8     7   ar
     8     9     8   ar
     9     9     2   ar
    10    10     9    2
    11    11     8   ar
    12    12    11   ar
    13    13     7   ar
    14    13    12   ar
