@<TRIPOS>MOLECULE
7INE_TEP_A1235
 13 14 0 0 0
SMALL
GASTEIGER

@<TRIPOS>ATOM
      1 C           1.3150   92.7980   51.2510 C.3     1  UNL1        0.1383
      2 N           1.1930   94.1380   51.7940 N.ar    1  UNL1       -0.2454
      3 C           2.2160   94.6750   52.5010 C.ar    1  UNL1        0.3350
      4 O           3.2060   94.0440   52.6720 O.2     1  UNL1       -0.2461
      5 N           2.1070   95.9280   53.0070 N.ar    1  UNL1       -0.2627
      6 C           3.1980   96.5120   53.7660 C.3     1  UNL1        0.1366
      7 C           0.9820   96.6390   52.8050 C.ar    1  UNL1        0.1716
      8 C          -0.0300   96.1090   52.1070 C.ar    1  UNL1        0.1731
      9 C           0.0840   94.8320   51.5960 C.ar    1  UNL1        0.2850
     10 O          -0.8010   94.3460   50.9760 O.2     1  UNL1       -0.2651
     11 N          -1.0140   97.0170   52.0640 N.ar    1  UNL1       -0.2160
     12 C          -0.6090   98.1020   52.7320 C.ar    1  UNL1        0.2005
     13 N           0.6230   97.8700   53.1910 N.ar    1  UNL1       -0.2047
@<TRIPOS>BOND
     1     2     1    1
     2     3     2   ar
     3     4     3    2
     4     5     3   ar
     5     6     5    1
     6     7     5   ar
     7     8     7   ar
     8     9     8   ar
     9     9     2   ar
    10    10     9    2
    11    11     8   ar
    12    12    11   ar
    13    13     7   ar
    14    13    12   ar
