@<TRIPOS>MOLECULE
7INE_TEP_A1235
 13 14 0 0 0
SMALL
GASTEIGER

@<TRIPOS>ATOM
      1 C           1.3130   92.8420   51.1680 C.3     1  UNL1        0.1383
      2 N           1.1830   94.1780   51.7210 N.ar    1  UNL1       -0.2454
      3 C           2.2030   94.7150   52.4330 C.ar    1  UNL1        0.3350
      4 O           3.1960   94.0890   52.6000 O.2     1  UNL1       -0.2461
      5 N           2.0860   95.9630   52.9490 N.ar    1  UNL1       -0.2627
      6 C           3.1740   96.5470   53.7130 C.3     1  UNL1        0.1366
      7 C           0.9570   96.6690   52.7520 C.ar    1  UNL1        0.1716
      8 C          -0.0510   96.1400   52.0490 C.ar    1  UNL1        0.1731
      9 C           0.0700   94.8670   51.5290 C.ar    1  UNL1        0.2850
     10 O          -0.8130   94.3810   50.9040 O.2     1  UNL1       -0.2651
     11 N          -1.0400   97.0430   52.0130 N.ar    1  UNL1       -0.2160
     12 C          -0.6420   98.1240   52.6900 C.ar    1  UNL1        0.2005
     13 N           0.5920   97.8960   53.1480 N.ar    1  UNL1       -0.2047
@<TRIPOS>BOND
     1     2     1    1
     2     3     2   ar
     3     4     3    2
     4     5     3   ar
     5     6     5    1
     6     7     5   ar
     7     8     7   ar
     8     9     8   ar
     9     9     2   ar
    10    10     9    2
    11    11     8   ar
    12    12    11   ar
    13    13     7   ar
    14    13    12   ar
