@<TRIPOS>MOLECULE
7INF_TEP_A1235
 13 14 0 0 0
SMALL
GASTEIGER

@<TRIPOS>ATOM
      1 C           1.0960   92.9170   51.1990 C.3     1  UNL1        0.1383
      2 N           1.0460   94.2490   51.7710 N.ar    1  UNL1       -0.2454
      3 C           2.0920   94.7270   52.4970 C.ar    1  UNL1        0.3350
      4 O           3.0510   94.0500   52.6690 O.2     1  UNL1       -0.2461
      5 N           2.0310   95.9760   53.0260 N.ar    1  UNL1       -0.2627
      6 C           3.1480   96.4910   53.8020 C.3     1  UNL1        0.1366
      7 C           0.9370   96.7390   52.8260 C.ar    1  UNL1        0.1716
      8 C          -0.0910   96.2640   52.1120 C.ar    1  UNL1        0.1731
      9 C          -0.0250   95.0010   51.5790 C.ar    1  UNL1        0.2850
     10 O          -0.9310   94.5830   50.9430 O.2     1  UNL1       -0.2651
     11 N          -1.0450   97.2040   52.0630 N.ar    1  UNL1       -0.2160
     12 C          -0.6040   98.2650   52.7480 C.ar    1  UNL1        0.2005
     13 N           0.6160   97.9830   53.2220 N.ar    1  UNL1       -0.2047
@<TRIPOS>BOND
     1     2     1    1
     2     3     2   ar
     3     4     3    2
     4     5     3   ar
     5     6     5    1
     6     7     5   ar
     7     8     7   ar
     8     9     8   ar
     9     9     2   ar
    10    10     9    2
    11    11     8   ar
    12    12    11   ar
    13    13     7   ar
    14    13    12   ar
