@<TRIPOS>MOLECULE
7INJ_TEP_A1235
 13 14 0 0 0
SMALL
GASTEIGER

@<TRIPOS>ATOM
      1 C           1.1520   92.9560   51.2250 C.3     1  UNL1        0.1383
      2 N           1.0780   94.3080   51.7510 N.ar    1  UNL1       -0.2454
      3 C           2.1110   94.8370   52.4540 C.ar    1  UNL1        0.3350
      4 O           3.0870   94.1920   52.6500 O.2     1  UNL1       -0.2461
      5 N           2.0240   96.1020   52.9370 N.ar    1  UNL1       -0.2627
      6 C           3.1120   96.6930   53.6930 C.3     1  UNL1        0.1366
      7 C           0.9180   96.8300   52.7210 C.ar    1  UNL1        0.1716
      8 C          -0.1000   96.3100   52.0270 C.ar    1  UNL1        0.1731
      9 C          -0.0120   95.0270   51.5370 C.ar    1  UNL1        0.2850
     10 O          -0.9130   94.5680   50.9220 O.2     1  UNL1       -0.2651
     11 N          -1.0690   97.2340   51.9600 N.ar    1  UNL1       -0.2160
     12 C          -0.6430   98.3240   52.6090 C.ar    1  UNL1        0.2005
     13 N           0.5860   98.0790   53.0780 N.ar    1  UNL1       -0.2047
@<TRIPOS>BOND
     1     2     1    1
     2     3     2   ar
     3     4     3    2
     4     5     3   ar
     5     6     5    1
     6     7     5   ar
     7     8     7   ar
     8     9     8   ar
     9     9     2   ar
    10    10     9    2
    11    11     8   ar
    12    12    11   ar
    13    13     7   ar
    14    13    12   ar
