@<TRIPOS>MOLECULE
7INJ_TEP_A1235
 13 14 0 0 0
SMALL
GASTEIGER

@<TRIPOS>ATOM
      1 C           1.1440   92.9150   51.2960 C.3     1  UNL1        0.1383
      2 N           1.0800   94.2700   51.8130 N.ar    1  UNL1       -0.2454
      3 C           2.1170   94.7960   52.5130 C.ar    1  UNL1        0.3350
      4 O           3.0890   94.1450   52.7120 O.2     1  UNL1       -0.2461
      5 N           2.0380   96.0650   52.9880 N.ar    1  UNL1       -0.2627
      6 C           3.1310   96.6540   53.7390 C.3     1  UNL1        0.1366
      7 C           0.9370   96.7990   52.7670 C.ar    1  UNL1        0.1716
      8 C          -0.0840   96.2820   52.0770 C.ar    1  UNL1        0.1731
      9 C          -0.0050   94.9950   51.5950 C.ar    1  UNL1        0.2850
     10 O          -0.9100   94.5390   50.9830 O.2     1  UNL1       -0.2651
     11 N          -1.0470   97.2130   52.0040 N.ar    1  UNL1       -0.2160
     12 C          -0.6130   98.3030   52.6460 C.ar    1  UNL1        0.2005
     13 N           0.6140   98.0530   53.1160 N.ar    1  UNL1       -0.2047
@<TRIPOS>BOND
     1     2     1    1
     2     3     2   ar
     3     4     3    2
     4     5     3   ar
     5     6     5    1
     6     7     5   ar
     7     8     7   ar
     8     9     8   ar
     9     9     2   ar
    10    10     9    2
    11    11     8   ar
    12    12    11   ar
    13    13     7   ar
    14    13    12   ar
