@<TRIPOS>MOLECULE
7INK_TEP_A1235
 13 14 0 0 0
SMALL
GASTEIGER

@<TRIPOS>ATOM
      1 C           1.2370   92.9450   51.2400 C.3     1  UNL1        0.1383
      2 N           1.1530   94.2880   51.7870 N.ar    1  UNL1       -0.2454
      3 C           2.1890   94.8140   52.4820 C.ar    1  UNL1        0.3350
      4 O           3.1740   94.1730   52.6460 O.2     1  UNL1       -0.2461
      5 N           2.0980   96.0690   52.9850 N.ar    1  UNL1       -0.2627
      6 C           3.2080   96.6410   53.7310 C.3     1  UNL1        0.1366
      7 C           0.9830   96.7940   52.7930 C.ar    1  UNL1        0.1716
      8 C          -0.0380   96.2760   52.1060 C.ar    1  UNL1        0.1731
      9 C           0.0570   95.0000   51.5970 C.ar    1  UNL1        0.2850
     10 O          -0.8390   94.5280   50.9910 O.2     1  UNL1       -0.2651
     11 N          -1.0160   97.1940   52.0630 N.ar    1  UNL1       -0.2160
     12 C          -0.5920   98.2760   52.7210 C.ar    1  UNL1        0.2005
     13 N           0.6410   98.0360   53.1720 N.ar    1  UNL1       -0.2047
@<TRIPOS>BOND
     1     2     1    1
     2     3     2   ar
     3     4     3    2
     4     5     3   ar
     5     6     5    1
     6     7     5   ar
     7     8     7   ar
     8     9     8   ar
     9     9     2   ar
    10    10     9    2
    11    11     8   ar
    12    12    11   ar
    13    13     7   ar
    14    13    12   ar
