@<TRIPOS>MOLECULE
7INL_A1COY_A1234
 9 9 0 0 0
SMALL
GASTEIGER

@<TRIPOS>ATOM
      1 C           2.1220   93.2270   51.6150 C.3     1  UNL1        0.0754
      2 C           1.0960   94.3540   51.6610 C.ar    1  UNL1        0.1549
      3 C           1.2520   95.5790   52.2980 C.ar    1  UNL1        0.0599
      4 C           0.0770   96.2840   52.0810 C.ar    1  UNL1        0.1459
      5 C          -0.2350   97.6830   52.5850 C.2     1  UNL1        0.1453
      6 N          -1.5590   98.2230   52.3560 N.am    1  UNL1       -0.1188
      7 N          -0.7350   95.5410   51.3530 N.ar    1  UNL1       -0.0754
      8 O          -0.1250   94.3520   51.0900 O.2     1  UNL1       -0.3577
      9 S           0.8760   98.5430   53.3510 S.2     1  UNL1       -0.0296
@<TRIPOS>BOND
     1     2     1    1
     2     3     2   ar
     3     4     3   ar
     4     5     4    1
     5     6     5    1
     6     7     4   ar
     7     8     7   ar
     8     8     2   ar
     9     9     5    2
