@<TRIPOS>MOLECULE
7INM_TEP_A1235
 13 14 0 0 0
SMALL
GASTEIGER

@<TRIPOS>ATOM
      1 C           1.2180   92.9500   51.2900 C.3     1  UNL1        0.1383
      2 N           1.1430   94.2900   51.8380 N.ar    1  UNL1       -0.2454
      3 C           2.1810   94.8240   52.5310 C.ar    1  UNL1        0.3350
      4 O           3.1710   94.1910   52.7070 O.2     1  UNL1       -0.2461
      5 N           2.0860   96.0810   53.0360 N.ar    1  UNL1       -0.2627
      6 C           3.1940   96.6600   53.7820 C.3     1  UNL1        0.1366
      7 C           0.9650   96.8020   52.8380 C.ar    1  UNL1        0.1716
      8 C          -0.0540   96.2750   52.1520 C.ar    1  UNL1        0.1731
      9 C           0.0450   95.0010   51.6490 C.ar    1  UNL1        0.2850
     10 O          -0.8610   94.5460   51.0450 O.2     1  UNL1       -0.2651
     11 N          -1.0400   97.1780   52.0980 N.ar    1  UNL1       -0.2160
     12 C          -0.6270   98.2680   52.7520 C.ar    1  UNL1        0.2005
     13 N           0.6100   98.0430   53.2080 N.ar    1  UNL1       -0.2047
@<TRIPOS>BOND
     1     2     1    1
     2     3     2   ar
     3     4     3    2
     4     5     3   ar
     5     6     5    1
     6     7     5   ar
     7     8     7   ar
     8     9     8   ar
     9     9     2   ar
    10    10     9    2
    11    11     8   ar
    12    12    11   ar
    13    13     7   ar
    14    13    12   ar
