@<TRIPOS>MOLECULE
7INN_TEP_A1235
 13 14 0 0 0
SMALL
GASTEIGER

@<TRIPOS>ATOM
      1 C           1.2050   92.8630   51.1440 C.3     1  UNL1        0.1383
      2 N           1.1190   94.1960   51.7100 N.ar    1  UNL1       -0.2454
      3 C           2.1680   94.7020   52.4080 C.ar    1  UNL1        0.3350
      4 O           3.1440   94.0420   52.5510 O.2     1  UNL1       -0.2461
      5 N           2.0990   95.9490   52.9400 N.ar    1  UNL1       -0.2627
      6 C           3.2170   96.4950   53.6930 C.3     1  UNL1        0.1366
      7 C           0.9840   96.6840   52.7700 C.ar    1  UNL1        0.1716
      8 C          -0.0500   96.1860   52.0810 C.ar    1  UNL1        0.1731
      9 C           0.0240   94.9200   51.5430 C.ar    1  UNL1        0.2850
     10 O          -0.8920   94.4830   50.9340 O.2     1  UNL1       -0.2651
     11 N          -1.0200   97.1060   52.0620 N.ar    1  UNL1       -0.2160
     12 C          -0.5830   98.1750   52.7380 C.ar    1  UNL1        0.2005
     13 N           0.6530   97.9160   53.1780 N.ar    1  UNL1       -0.2047
@<TRIPOS>BOND
     1     2     1    1
     2     3     2   ar
     3     4     3    2
     4     5     3   ar
     5     6     5    1
     6     7     5   ar
     7     8     7   ar
     8     9     8   ar
     9     9     2   ar
    10    10     9    2
    11    11     8   ar
    12    12    11   ar
    13    13     7   ar
    14    13    12   ar
