@<TRIPOS>MOLECULE
7INO_TEP_A1235
 13 14 0 0 0
SMALL
GASTEIGER

@<TRIPOS>ATOM
      1 C           1.2580   92.8870   51.2000 C.3     1  UNL1        0.1383
      2 N           1.1430   94.2110   51.7780 N.ar    1  UNL1       -0.2454
      3 C           2.1620   94.7200   52.5050 C.ar    1  UNL1        0.3350
      4 O           3.1450   94.0760   52.6660 O.2     1  UNL1       -0.2461
      5 N           2.0540   95.9550   53.0430 N.ar    1  UNL1       -0.2627
      6 C           3.1440   96.5110   53.8270 C.3     1  UNL1        0.1366
      7 C           0.9330   96.6740   52.8530 C.ar    1  UNL1        0.1716
      8 C          -0.0740   96.1730   52.1320 C.ar    1  UNL1        0.1731
      9 C           0.0400   94.9170   51.5860 C.ar    1  UNL1        0.2850
     10 O          -0.8490   94.4640   50.9460 O.2     1  UNL1       -0.2651
     11 N          -1.0600   97.0790   52.0970 N.ar    1  UNL1       -0.2160
     12 C          -0.6580   98.1430   52.7990 C.ar    1  UNL1        0.2005
     13 N           0.5720   97.8960   53.2650 N.ar    1  UNL1       -0.2047
@<TRIPOS>BOND
     1     2     1    1
     2     3     2   ar
     3     4     3    2
     4     5     3   ar
     5     6     5    1
     6     7     5   ar
     7     8     7   ar
     8     9     8   ar
     9     9     2   ar
    10    10     9    2
    11    11     8   ar
    12    12    11   ar
    13    13     7   ar
    14    13    12   ar
