@<TRIPOS>MOLECULE
7INP_TEP_A1235
 13 14 0 0 0
SMALL
GASTEIGER

@<TRIPOS>ATOM
      1 C           1.1670   92.9270   51.2070 C.3     1  UNL1        0.1383
      2 N           1.1170   94.2600   51.7670 N.ar    1  UNL1       -0.2454
      3 C           2.1780   94.7700   52.4420 C.ar    1  UNL1        0.3350
      4 O           3.1630   94.1200   52.5760 O.2     1  UNL1       -0.2461
      5 N           2.1140   96.0200   52.9620 N.ar    1  UNL1       -0.2627
      6 C           3.2450   96.5770   53.6850 C.3     1  UNL1        0.1366
      7 C           0.9980   96.7540   52.8030 C.ar    1  UNL1        0.1716
      8 C          -0.0470   96.2510   52.1390 C.ar    1  UNL1        0.1731
      9 C           0.0210   94.9850   51.6150 C.ar    1  UNL1        0.2850
     10 O          -0.9020   94.5420   51.0280 O.2     1  UNL1       -0.2651
     11 N          -1.0200   97.1710   52.1280 N.ar    1  UNL1       -0.2160
     12 C          -0.5710   98.2440   52.7850 C.ar    1  UNL1        0.2005
     13 N           0.6730   97.9920   53.2030 N.ar    1  UNL1       -0.2047
@<TRIPOS>BOND
     1     2     1    1
     2     3     2   ar
     3     4     3    2
     4     5     3   ar
     5     6     5    1
     6     7     5   ar
     7     8     7   ar
     8     9     8   ar
     9     9     2   ar
    10    10     9    2
    11    11     8   ar
    12    12    11   ar
    13    13     7   ar
    14    13    12   ar
