@<TRIPOS>MOLECULE
7INQ_TEP_A1235
 13 14 0 0 0
SMALL
GASTEIGER

@<TRIPOS>ATOM
      1 C           1.3130   92.8560   51.2150 C.3     1  UNL1        0.1383
      2 N           1.1860   94.1970   51.7540 N.ar    1  UNL1       -0.2454
      3 C           2.2050   94.7480   52.4560 C.ar    1  UNL1        0.3350
      4 O           3.2000   94.1260   52.6320 O.2     1  UNL1       -0.2461
      5 N           2.0840   95.9990   52.9600 N.ar    1  UNL1       -0.2627
      6 C           3.1740   96.5990   53.7120 C.3     1  UNL1        0.1366
      7 C           0.9540   96.7010   52.7550 C.ar    1  UNL1        0.1716
      8 C          -0.0530   96.1600   52.0590 C.ar    1  UNL1        0.1731
      9 C           0.0750   94.8820   51.5510 C.ar    1  UNL1        0.2850
     10 O          -0.8010   94.3840   50.9320 O.2     1  UNL1       -0.2651
     11 N          -1.0450   97.0600   52.0110 N.ar    1  UNL1       -0.2160
     12 C          -0.6460   98.1530   52.6720 C.ar    1  UNL1        0.2005
     13 N           0.5880   97.9350   53.1320 N.ar    1  UNL1       -0.2047
@<TRIPOS>BOND
     1     2     1    1
     2     3     2   ar
     3     4     3    2
     4     5     3   ar
     5     6     5    1
     6     7     5   ar
     7     8     7   ar
     8     9     8   ar
     9     9     2   ar
    10    10     9    2
    11    11     8   ar
    12    12    11   ar
    13    13     7   ar
    14    13    12   ar
