@<TRIPOS>MOLECULE
7INQ_TEP_A1235
 13 14 0 0 0
SMALL
GASTEIGER

@<TRIPOS>ATOM
      1 C           1.3040   92.8050   51.3000 C.3     1  UNL1        0.1383
      2 N           1.1860   94.1510   51.8270 N.ar    1  UNL1       -0.2454
      3 C           2.2090   94.7020   52.5260 C.ar    1  UNL1        0.3350
      4 O           3.1990   94.0760   52.7070 O.2     1  UNL1       -0.2461
      5 N           2.0950   95.9580   53.0190 N.ar    1  UNL1       -0.2627
      6 C           3.1890   96.5570   53.7670 C.3     1  UNL1        0.1366
      7 C           0.9700   96.6650   52.8080 C.ar    1  UNL1        0.1716
      8 C          -0.0400   96.1250   52.1160 C.ar    1  UNL1        0.1731
      9 C           0.0790   94.8420   51.6190 C.ar    1  UNL1        0.2850
     10 O          -0.7990   94.3450   51.0040 O.2     1  UNL1       -0.2651
     11 N          -1.0270   97.0310   52.0600 N.ar    1  UNL1       -0.2160
     12 C          -0.6210   98.1270   52.7120 C.ar    1  UNL1        0.2005
     13 N           0.6120   97.9050   53.1750 N.ar    1  UNL1       -0.2047
@<TRIPOS>BOND
     1     2     1    1
     2     3     2   ar
     3     4     3    2
     4     5     3   ar
     5     6     5    1
     6     7     5   ar
     7     8     7   ar
     8     9     8   ar
     9     9     2   ar
    10    10     9    2
    11    11     8   ar
    12    12    11   ar
    13    13     7   ar
    14    13    12   ar
