@<TRIPOS>MOLECULE
7INR_TEP_A1235
 13 14 0 0 0
SMALL
GASTEIGER

@<TRIPOS>ATOM
      1 C           1.3120   92.7850   51.3300 C.3     1  UNL1        0.1383
      2 N           1.1860   94.1260   51.8660 N.ar    1  UNL1       -0.2454
      3 C           2.2020   94.6850   52.5700 C.ar    1  UNL1        0.3350
      4 O           3.2030   94.0740   52.7560 O.2     1  UNL1       -0.2461
      5 N           2.0690   95.9390   53.0640 N.ar    1  UNL1       -0.2627
      6 C           3.1450   96.5600   53.8200 C.3     1  UNL1        0.1366
      7 C           0.9370   96.6290   52.8500 C.ar    1  UNL1        0.1716
      8 C          -0.0660   96.0810   52.1570 C.ar    1  UNL1        0.1731
      9 C           0.0690   94.8040   51.6570 C.ar    1  UNL1        0.2850
     10 O          -0.8080   94.3040   51.0400 O.2     1  UNL1       -0.2651
     11 N          -1.0660   96.9730   52.1000 N.ar    1  UNL1       -0.2160
     12 C          -0.6740   98.0690   52.7590 C.ar    1  UNL1        0.2005
     13 N           0.5610   97.8600   53.2220 N.ar    1  UNL1       -0.2047
@<TRIPOS>BOND
     1     2     1    1
     2     3     2   ar
     3     4     3    2
     4     5     3   ar
     5     6     5    1
     6     7     5   ar
     7     8     7   ar
     8     9     8   ar
     9     9     2   ar
    10    10     9    2
    11    11     8   ar
    12    12    11   ar
    13    13    12   ar
    14    13     7   ar
