@<TRIPOS>MOLECULE
7INT_TEP_A1235
 13 14 0 0 0
SMALL
GASTEIGER

@<TRIPOS>ATOM
      1 C           1.0910   92.9120   51.1880 C.3     1  UNL1        0.1383
      2 N           1.0250   94.2480   51.7520 N.ar    1  UNL1       -0.2454
      3 C           2.0750   94.7490   52.4490 C.ar    1  UNL1        0.3350
      4 O           3.0500   94.0920   52.5980 O.2     1  UNL1       -0.2461
      5 N           2.0060   95.9980   52.9710 N.ar    1  UNL1       -0.2627
      6 C           3.1260   96.5470   53.7180 C.3     1  UNL1        0.1366
      7 C           0.8980   96.7400   52.7980 C.ar    1  UNL1        0.1716
      8 C          -0.1370   96.2460   52.1130 C.ar    1  UNL1        0.1731
      9 C          -0.0640   94.9760   51.5850 C.ar    1  UNL1        0.2850
     10 O          -0.9750   94.5340   50.9760 O.2     1  UNL1       -0.2651
     11 N          -1.1020   97.1760   52.0910 N.ar    1  UNL1       -0.2160
     12 C          -0.6590   98.2450   52.7620 C.ar    1  UNL1        0.2005
     13 N           0.5750   97.9790   53.2010 N.ar    1  UNL1       -0.2047
@<TRIPOS>BOND
     1     2     1    1
     2     3     2   ar
     3     4     3    2
     4     5     3   ar
     5     6     5    1
     6     7     5   ar
     7     8     7   ar
     8     9     8   ar
     9     9     2   ar
    10    10     9    2
    11    11     8   ar
    12    12    11   ar
    13    13     7   ar
    14    13    12   ar
