@<TRIPOS>MOLECULE
7INV_TEP_A1235
 13 14 0 0 0
SMALL
GASTEIGER

@<TRIPOS>ATOM
      1 C           1.1410   92.8910   51.2980 C.3     1  UNL1        0.1383
      2 N           1.0820   94.2330   51.8450 N.ar    1  UNL1       -0.2454
      3 C           2.1360   94.7410   52.5260 C.ar    1  UNL1        0.3350
      4 O           3.1100   94.0850   52.6790 O.2     1  UNL1       -0.2461
      5 N           2.0820   95.9940   53.0340 N.ar    1  UNL1       -0.2627
      6 C           3.2170   96.5280   53.7650 C.3     1  UNL1        0.1366
      7 C           0.9760   96.7440   52.8630 C.ar    1  UNL1        0.1716
      8 C          -0.0680   96.2450   52.1890 C.ar    1  UNL1        0.1731
      9 C          -0.0040   94.9630   51.6740 C.ar    1  UNL1        0.2850
     10 O          -0.9160   94.5070   51.0750 O.2     1  UNL1       -0.2651
     11 N          -1.0230   97.1830   52.1650 N.ar    1  UNL1       -0.2160
     12 C          -0.5690   98.2570   52.8200 C.ar    1  UNL1        0.2005
     13 N           0.6660   97.9890   53.2530 N.ar    1  UNL1       -0.2047
@<TRIPOS>BOND
     1     2     1    1
     2     3     2   ar
     3     4     3    2
     4     5     3   ar
     5     6     5    1
     6     7     5   ar
     7     8     7   ar
     8     9     8   ar
     9     9     2   ar
    10    10     9    2
    11    11     8   ar
    12    12    11   ar
    13    13     7   ar
    14    13    12   ar
