@<TRIPOS>MOLECULE
7INV_TEP_A1235
 13 14 0 0 0
SMALL
GASTEIGER

@<TRIPOS>ATOM
      1 C           1.1620   92.9500   51.2160 C.3     1  UNL1        0.1383
      2 N           1.0930   94.2860   51.7730 N.ar    1  UNL1       -0.2454
      3 C           2.1440   94.7960   52.4590 C.ar    1  UNL1        0.3350
      4 O           3.1210   94.1450   52.6090 O.2     1  UNL1       -0.2461
      5 N           2.0800   96.0440   52.9780 N.ar    1  UNL1       -0.2627
      6 C           3.2110   96.5800   53.7140 C.3     1  UNL1        0.1366
      7 C           0.9690   96.7880   52.8120 C.ar    1  UNL1        0.1716
      8 C          -0.0710   96.2870   52.1330 C.ar    1  UNL1        0.1731
      9 C           0.0030   95.0100   51.6070 C.ar    1  UNL1        0.2850
     10 O          -0.9050   94.5530   51.0040 O.2     1  UNL1       -0.2651
     11 N          -1.0330   97.2190   52.1160 N.ar    1  UNL1       -0.2160
     12 C          -0.5870   98.2900   52.7800 C.ar    1  UNL1        0.2005
     13 N           0.6500   98.0270   53.2120 N.ar    1  UNL1       -0.2047
@<TRIPOS>BOND
     1     2     1    1
     2     3     2   ar
     3     4     3    2
     4     5     3   ar
     5     6     5    1
     6     7     5   ar
     7     8     7   ar
     8     9     8   ar
     9     9     2   ar
    10    10     9    2
    11    11     8   ar
    12    12    11   ar
    13    13     7   ar
    14    13    12   ar
