@<TRIPOS>MOLECULE
7INY_TEP_A2401
 13 14 0 0 0
SMALL
GASTEIGER

@<TRIPOS>ATOM
      1 C           1.1490   92.8160   51.3900 C.3     1  UNL1        0.1383
      2 N           1.0040   94.1760   51.8770 N.ar    1  UNL1       -0.2454
      3 C           2.0500   94.7460   52.5310 C.ar    1  UNL1        0.3350
      4 O           3.0550   94.1410   52.7000 O.2     1  UNL1       -0.2461
      5 N           1.9650   96.0080   53.0020 N.ar    1  UNL1       -0.2627
      6 C           3.1110   96.5710   53.6960 C.3     1  UNL1        0.1366
      7 C           0.8350   96.7200   52.8220 C.ar    1  UNL1        0.1716
      8 C          -0.2020   96.1680   52.1780 C.ar    1  UNL1        0.1731
      9 C          -0.1190   94.8760   51.7000 C.ar    1  UNL1        0.2850
     10 O          -1.0600   94.4220   51.1330 O.2     1  UNL1       -0.2651
     11 N          -1.2000   97.0620   52.1300 N.ar    1  UNL1       -0.2160
     12 C          -0.7670   98.1690   52.7490 C.ar    1  UNL1        0.2005
     13 N           0.4900   97.9660   53.1820 N.ar    1  UNL1       -0.2047
@<TRIPOS>BOND
     1     2     1    1
     2     3     2   ar
     3     4     3    2
     4     5     3   ar
     5     6     5    1
     6     7     5   ar
     7     8     7   ar
     8     9     8   ar
     9     9     2   ar
    10    10     9    2
    11    11     8   ar
    12    12    11   ar
    13    13     7   ar
    14    13    12   ar
