@<TRIPOS>MOLECULE
7IO0_TEP_A2401
 13 14 0 0 0
SMALL
GASTEIGER

@<TRIPOS>ATOM
      1 C           1.1310   92.9130   51.4000 C.3     1  UNL1        0.1383
      2 N           1.0370   94.2740   51.9040 N.ar    1  UNL1       -0.2454
      3 C           2.0930   94.8130   52.5730 C.ar    1  UNL1        0.3350
      4 O           3.0800   94.1750   52.7420 O.2     1  UNL1       -0.2461
      5 N           2.0210   96.0760   53.0470 N.ar    1  UNL1       -0.2627
      6 C           3.1590   96.6280   53.7580 C.3     1  UNL1        0.1366
      7 C           0.9070   96.8060   52.8620 C.ar    1  UNL1        0.1716
      8 C          -0.1300   96.2800   52.2050 C.ar    1  UNL1        0.1731
      9 C          -0.0620   94.9910   51.7180 C.ar    1  UNL1        0.2850
     10 O          -0.9900   94.5340   51.1360 O.2     1  UNL1       -0.2651
     11 N          -1.1070   97.1990   52.1540 N.ar    1  UNL1       -0.2160
     12 C          -0.6600   98.2970   52.7850 C.ar    1  UNL1        0.2005
     13 N           0.5850   98.0540   53.2250 N.ar    1  UNL1       -0.2047
@<TRIPOS>BOND
     1     2     1    1
     2     3     2   ar
     3     4     3    2
     4     5     3   ar
     5     6     5    1
     6     7     5   ar
     7     8     7   ar
     8     9     8   ar
     9     9     2   ar
    10    10     9    2
    11    11     8   ar
    12    12    11   ar
    13    13     7   ar
    14    13    12   ar
