@<TRIPOS>MOLECULE
7IO1_TEP_A2401
 13 14 0 0 0
SMALL
GASTEIGER

@<TRIPOS>ATOM
      1 C           1.4290   92.8090   51.3990 C.3     1  UNL1        0.1383
      2 N           1.2360   94.1590   51.8990 N.ar    1  UNL1       -0.2454
      3 C           2.2410   94.7620   52.5800 C.ar    1  UNL1        0.3350
      4 O           3.2640   94.1900   52.7670 O.2     1  UNL1       -0.2461
      5 N           2.0770   96.0180   53.0530 N.ar    1  UNL1       -0.2627
      6 C           3.1640   96.6490   53.7790 C.3     1  UNL1        0.1366
      7 C           0.9200   96.6770   52.8480 C.ar    1  UNL1        0.1716
      8 C          -0.0740   96.0880   52.1750 C.ar    1  UNL1        0.1731
      9 C           0.0940   94.8040   51.6940 C.ar    1  UNL1        0.2850
     10 O          -0.7880   94.2830   51.0990 O.2     1  UNL1       -0.2651
     11 N          -1.1020   96.9460   52.1110 N.ar    1  UNL1       -0.2160
     12 C          -0.7310   98.0630   52.7470 C.ar    1  UNL1        0.2005
     13 N           0.5170   97.9030   53.2030 N.ar    1  UNL1       -0.2047
@<TRIPOS>BOND
     1     2     1    1
     2     3     2   ar
     3     4     3    2
     4     5     3   ar
     5     6     5    1
     6     7     5   ar
     7     8     7   ar
     8     9     8   ar
     9     9     2   ar
    10    10     9    2
    11    11     8   ar
    12    12    11   ar
    13    13    12   ar
    14    13     7   ar
