@<TRIPOS>MOLECULE
7IO2_TEP_A2401
 13 14 0 0 0
SMALL
GASTEIGER

@<TRIPOS>ATOM
      1 C           1.1330   92.8610   51.3090 C.3     1  UNL1        0.1383
      2 N           1.0140   94.2160   51.8190 N.ar    1  UNL1       -0.2454
      3 C           2.0600   94.7810   52.4740 C.ar    1  UNL1        0.3350
      4 O           3.0660   94.1710   52.6310 O.2     1  UNL1       -0.2461
      5 N           1.9610   96.0430   52.9520 N.ar    1  UNL1       -0.2627
      6 C           3.0900   96.6330   53.6510 C.3     1  UNL1        0.1366
      7 C           0.8270   96.7450   52.7830 C.ar    1  UNL1        0.1716
      8 C          -0.2060   96.1930   52.1380 C.ar    1  UNL1        0.1731
      9 C          -0.1060   94.9060   51.6480 C.ar    1  UNL1        0.2850
     10 O          -1.0280   94.4250   51.0770 O.2     1  UNL1       -0.2651
     11 N          -1.2050   97.0860   52.1000 N.ar    1  UNL1       -0.2160
     12 C          -0.7720   98.1850   52.7250 C.ar    1  UNL1        0.2005
     13 N           0.4840   97.9880   53.1510 N.ar    1  UNL1       -0.2047
@<TRIPOS>BOND
     1     2     1    1
     2     3     2   ar
     3     4     3    2
     4     5     3   ar
     5     6     5    1
     6     7     5   ar
     7     8     7   ar
     8     9     8   ar
     9     9     2   ar
    10    10     9    2
    11    11     8   ar
    12    12    11   ar
    13    13     7   ar
    14    13    12   ar
