@<TRIPOS>MOLECULE
7IO3_TEP_A2401
 13 14 0 0 0
SMALL
GASTEIGER

@<TRIPOS>ATOM
      1 C           1.3830   92.8960   51.2250 C.3     1  UNL1        0.1383
      2 N           1.1760   94.2330   51.7530 N.ar    1  UNL1       -0.2454
      3 C           2.1500   94.8270   52.4830 C.ar    1  UNL1        0.3350
      4 O           3.1700   94.2590   52.6920 O.2     1  UNL1       -0.2461
      5 N           1.9640   96.0710   52.9750 N.ar    1  UNL1       -0.2627
      6 C           3.0250   96.6860   53.7550 C.3     1  UNL1        0.1366
      7 C           0.8100   96.7270   52.7450 C.ar    1  UNL1        0.1716
      8 C          -0.1510   96.1400   52.0260 C.ar    1  UNL1        0.1731
      9 C           0.0390   94.8700   51.5230 C.ar    1  UNL1        0.2850
     10 O          -0.8170   94.3560   50.8840 O.2     1  UNL1       -0.2651
     11 N          -1.1850   96.9850   51.9380 N.ar    1  UNL1       -0.2160
     12 C          -0.8580   98.0960   52.6080 C.ar    1  UNL1        0.2005
     13 N           0.3740   97.9400   53.1080 N.ar    1  UNL1       -0.2047
@<TRIPOS>BOND
     1     2     1    1
     2     3     2   ar
     3     4     3    2
     4     5     3   ar
     5     6     5    1
     6     7     5   ar
     7     8     7   ar
     8     9     8   ar
     9     9     2   ar
    10    10     9    2
    11    11     8   ar
    12    12    11   ar
    13    13    12   ar
    14    13     7   ar
