@<TRIPOS>MOLECULE
7IO4_TEP_A2401
 13 14 0 0 0
SMALL
GASTEIGER

@<TRIPOS>ATOM
      1 C           1.2590   92.7780   51.2490 C.3     1  UNL1        0.1383
      2 N           1.0930   94.1170   51.7820 N.ar    1  UNL1       -0.2454
      3 C           2.1070   94.7090   52.4580 C.ar    1  UNL1        0.3350
      4 O           3.1320   94.1340   52.6150 O.2     1  UNL1       -0.2461
      5 N           1.9550   95.9550   52.9560 N.ar    1  UNL1       -0.2627
      6 C           3.0480   96.5830   53.6810 C.3     1  UNL1        0.1366
      7 C           0.7930   96.6120   52.7820 C.ar    1  UNL1        0.1716
      8 C          -0.2080   96.0320   52.1160 C.ar    1  UNL1        0.1731
      9 C          -0.0510   94.7620   51.6110 C.ar    1  UNL1        0.2850
     10 O          -0.9400   94.2440   51.0180 O.2     1  UNL1       -0.2651
     11 N          -1.2380   96.8920   52.0850 N.ar    1  UNL1       -0.2160
     12 C          -0.8660   98.0000   52.7320 C.ar    1  UNL1        0.2005
     13 N           0.3860   97.8280   53.1640 N.ar    1  UNL1       -0.2047
@<TRIPOS>BOND
     1     2     1    1
     2     3     2   ar
     3     4     3    2
     4     5     3   ar
     5     6     5    1
     6     7     5   ar
     7     8     7   ar
     8     9     8   ar
     9     9     2   ar
    10    10     9    2
    11    11     8   ar
    12    12    11   ar
    13    13    12   ar
    14    13     7   ar
