@<TRIPOS>MOLECULE
7IO6_TEP_A2401
 13 14 0 0 0
SMALL
GASTEIGER

@<TRIPOS>ATOM
      1 C           1.1710   92.8410   51.3820 C.3     1  UNL1        0.1383
      2 N           1.0290   94.1970   51.8760 N.ar    1  UNL1       -0.2454
      3 C           2.0690   94.7670   52.5430 C.ar    1  UNL1        0.3350
      4 O           3.0750   94.1690   52.7200 O.2     1  UNL1       -0.2461
      5 N           1.9760   96.0260   53.0200 N.ar    1  UNL1       -0.2627
      6 C           3.1110   96.5900   53.7260 C.3     1  UNL1        0.1366
      7 C           0.8480   96.7330   52.8380 C.ar    1  UNL1        0.1716
      8 C          -0.1820   96.1810   52.1840 C.ar    1  UNL1        0.1731
      9 C          -0.0930   94.8930   51.6980 C.ar    1  UNL1        0.2850
     10 O          -1.0250   94.4360   51.1240 O.2     1  UNL1       -0.2651
     11 N          -1.1780   97.0760   52.1350 N.ar    1  UNL1       -0.2160
     12 C          -0.7500   98.1820   52.7650 C.ar    1  UNL1        0.2005
     13 N           0.5020   97.9720   53.2040 N.ar    1  UNL1       -0.2047
@<TRIPOS>BOND
     1     2     1    1
     2     3     2   ar
     3     4     3    2
     4     5     3   ar
     5     6     5    1
     6     7     5   ar
     7     8     7   ar
     8     9     8   ar
     9     9     2   ar
    10    10     9    2
    11    11     8   ar
    12    12    11   ar
    13    13     7   ar
    14    13    12   ar
