@<TRIPOS>MOLECULE
7IO8_TEP_A2401
 13 14 0 0 0
SMALL
GASTEIGER

@<TRIPOS>ATOM
      1 C           1.3110   92.9290   51.2280 C.3     1  UNL1        0.1383
      2 N           1.1430   94.2660   51.7770 N.ar    1  UNL1       -0.2454
      3 C           2.1440   94.8280   52.4950 C.ar    1  UNL1        0.3350
      4 O           3.1530   94.2330   52.6750 O.2     1  UNL1       -0.2461
      5 N           1.9990   96.0700   53.0090 N.ar    1  UNL1       -0.2627
      6 C           3.0860   96.6560   53.7730 C.3     1  UNL1        0.1366
      7 C           0.8570   96.7540   52.8120 C.ar    1  UNL1        0.1716
      8 C          -0.1370   96.2060   52.1030 C.ar    1  UNL1        0.1731
      9 C           0.0160   94.9380   51.5790 C.ar    1  UNL1        0.2850
     10 O          -0.8620   94.4470   50.9520 O.2     1  UNL1       -0.2651
     11 N          -1.1470   97.0880   52.0550 N.ar    1  UNL1       -0.2160
     12 C          -0.7690   98.1770   52.7340 C.ar    1  UNL1        0.2005
     13 N           0.4660   97.9730   53.2010 N.ar    1  UNL1       -0.2047
@<TRIPOS>BOND
     1     2     1    1
     2     3     2   ar
     3     4     3    2
     4     5     3   ar
     5     6     5    1
     6     7     5   ar
     7     8     7   ar
     8     9     8   ar
     9     9     2   ar
    10    10     9    2
    11    11     8   ar
    12    12    11   ar
    13    13     7   ar
    14    13    12   ar
