@<TRIPOS>MOLECULE
7IO9_TEP_A2401
 13 14 0 0 0
SMALL
GASTEIGER

@<TRIPOS>ATOM
      1 C           1.0150   92.7200   51.4450 C.3     1  UNL1        0.1383
      2 N           0.9730   94.0980   51.9100 N.ar    1  UNL1       -0.2454
      3 C           2.0300   94.6430   52.5670 C.ar    1  UNL1        0.3350
      4 O           3.0040   93.9840   52.7660 O.2     1  UNL1       -0.2461
      5 N           1.9670   95.9340   52.9960 N.ar    1  UNL1       -0.2627
      6 C           3.0940   96.5320   53.6960 C.3     1  UNL1        0.1366
      7 C           0.8610   96.6680   52.7640 C.ar    1  UNL1        0.1716
      8 C          -0.1770   96.1230   52.1180 C.ar    1  UNL1        0.1731
      9 C          -0.1110   94.8180   51.6870 C.ar    1  UNL1        0.2850
     10 O          -1.0250   94.3260   51.1140 O.2     1  UNL1       -0.2651
     11 N          -1.1390   97.0480   52.0170 N.ar    1  UNL1       -0.2160
     12 C          -0.6920   98.1670   52.6050 C.ar    1  UNL1        0.2005
     13 N           0.5450   97.9360   53.0650 N.ar    1  UNL1       -0.2047
@<TRIPOS>BOND
     1     2     1    1
     2     3     2   ar
     3     4     3    2
     4     5     3   ar
     5     6     5    1
     6     7     5   ar
     7     8     7   ar
     8     9     8   ar
     9     9     2   ar
    10    10     9    2
    11    11     8   ar
    12    12    11   ar
    13    13     7   ar
    14    13    12   ar
