@<TRIPOS>MOLECULE
7IOA_TEP_A2401
 13 14 0 0 0
SMALL
GASTEIGER

@<TRIPOS>ATOM
      1 C           1.1870   92.7770   51.3210 C.3     1  UNL1        0.1383
      2 N           1.0480   94.1360   51.8210 N.ar    1  UNL1       -0.2454
      3 C           2.0760   94.7100   52.4950 C.ar    1  UNL1        0.3350
      4 O           3.0820   94.1020   52.6760 O.2     1  UNL1       -0.2461
      5 N           1.9560   95.9730   52.9610 N.ar    1  UNL1       -0.2627
      6 C           3.0650   96.5750   53.6820 C.3     1  UNL1        0.1366
      7 C           0.8210   96.6630   52.7590 C.ar    1  UNL1        0.1716
      8 C          -0.1930   96.0990   52.0940 C.ar    1  UNL1        0.1731
      9 C          -0.0740   94.8110   51.6170 C.ar    1  UNL1        0.2850
     10 O          -0.9760   94.3120   51.0260 O.2     1  UNL1       -0.2651
     11 N          -1.1960   96.9830   52.0280 N.ar    1  UNL1       -0.2160
     12 C          -0.7960   98.1000   52.6560 C.ar    1  UNL1        0.2005
     13 N           0.4520   97.9030   53.1090 N.ar    1  UNL1       -0.2047
@<TRIPOS>BOND
     1     2     1    1
     2     3     2   ar
     3     4     3    2
     4     5     3   ar
     5     6     5    1
     6     7     5   ar
     7     8     7   ar
     8     9     8   ar
     9     9     2   ar
    10    10     9    2
    11    11     8   ar
    12    12    11   ar
    13    13     7   ar
    14    13    12   ar
