@<TRIPOS>MOLECULE
7IOA_TEP_A2401
 13 14 0 0 0
SMALL
GASTEIGER

@<TRIPOS>ATOM
      1 C           1.1710   92.7380   51.4070 C.3     1  UNL1        0.1383
      2 N           1.0380   94.1020   51.8940 N.ar    1  UNL1       -0.2454
      3 C           2.0690   94.6760   52.5650 C.ar    1  UNL1        0.3350
      4 O           3.0710   94.0640   52.7530 O.2     1  UNL1       -0.2461
      5 N           1.9570   95.9440   53.0190 N.ar    1  UNL1       -0.2627
      6 C           3.0680   96.5450   53.7360 C.3     1  UNL1        0.1366
      7 C           0.8260   96.6390   52.8090 C.ar    1  UNL1        0.1716
      8 C          -0.1900   96.0750   52.1480 C.ar    1  UNL1        0.1731
      9 C          -0.0790   94.7830   51.6830 C.ar    1  UNL1        0.2850
     10 O          -0.9830   94.2840   51.0950 O.2     1  UNL1       -0.2651
     11 N          -1.1880   96.9650   52.0720 N.ar    1  UNL1       -0.2160
     12 C          -0.7820   98.0850   52.6910 C.ar    1  UNL1        0.2005
     13 N           0.4650   97.8850   53.1480 N.ar    1  UNL1       -0.2047
@<TRIPOS>BOND
     1     2     1    1
     2     3     2   ar
     3     4     3    2
     4     5     3   ar
     5     6     5    1
     6     7     5   ar
     7     8     7   ar
     8     9     8   ar
     9     9     2   ar
    10    10     9    2
    11    11     8   ar
    12    12    11   ar
    13    13    12   ar
    14    13     7   ar
