@<TRIPOS>MOLECULE
7IOB_TEP_A2401
 13 14 0 0 0
SMALL
GASTEIGER

@<TRIPOS>ATOM
      1 C           1.1380   92.8720   51.4140 C.3     1  UNL1        0.1383
      2 N           1.0880   94.2330   51.9310 N.ar    1  UNL1       -0.2454
      3 C           2.1550   94.7310   52.6120 C.ar    1  UNL1        0.3350
      4 O           3.1210   94.0590   52.7820 O.2     1  UNL1       -0.2461
      5 N           2.1210   95.9950   53.0950 N.ar    1  UNL1       -0.2627
      6 C           3.2720   96.5070   53.8190 C.3     1  UNL1        0.1366
      7 C           1.0300   96.7640   52.9070 C.ar    1  UNL1        0.1716
      8 C          -0.0200   96.2750   52.2370 C.ar    1  UNL1        0.1731
      9 C           0.0130   94.9870   51.7420 C.ar    1  UNL1        0.2850
     10 O          -0.9220   94.5600   51.1500 O.2     1  UNL1       -0.2651
     11 N          -0.9650   97.2240   52.1840 N.ar    1  UNL1       -0.2160
     12 C          -0.4890   98.3010   52.8260 C.ar    1  UNL1        0.2005
     13 N           0.7430   98.0180   53.2740 N.ar    1  UNL1       -0.2047
@<TRIPOS>BOND
     1     2     1    1
     2     3     2   ar
     3     4     3    2
     4     5     3   ar
     5     6     5    1
     6     7     5   ar
     7     8     7   ar
     8     9     8   ar
     9     9     2   ar
    10    10     9    2
    11    11     8   ar
    12    12    11   ar
    13    13     7   ar
    14    13    12   ar
