@<TRIPOS>MOLECULE
7IOB_TEP_A2401
 13 14 0 0 0
SMALL
GASTEIGER

@<TRIPOS>ATOM
      1 C           1.1530   92.9170   51.3310 C.3     1  UNL1        0.1383
      2 N           1.0960   94.2740   51.8590 N.ar    1  UNL1       -0.2454
      3 C           2.1600   94.7730   52.5440 C.ar    1  UNL1        0.3350
      4 O           3.1290   94.1040   52.7090 O.2     1  UNL1       -0.2461
      5 N           2.1190   96.0330   53.0380 N.ar    1  UNL1       -0.2627
      6 C           3.2670   96.5450   53.7660 C.3     1  UNL1        0.1366
      7 C           1.0240   96.7970   52.8550 C.ar    1  UNL1        0.1716
      8 C          -0.0240   96.3070   52.1820 C.ar    1  UNL1        0.1731
      9 C           0.0170   95.0230   51.6770 C.ar    1  UNL1        0.2850
     10 O          -0.9160   94.5960   51.0810 O.2     1  UNL1       -0.2651
     11 N          -0.9740   97.2510   52.1370 N.ar    1  UNL1       -0.2160
     12 C          -0.5040   98.3250   52.7880 C.ar    1  UNL1        0.2005
     13 N           0.7290   98.0460   53.2330 N.ar    1  UNL1       -0.2047
@<TRIPOS>BOND
     1     2     1    1
     2     3     2   ar
     3     4     3    2
     4     5     3   ar
     5     6     5    1
     6     7     5   ar
     7     8     7   ar
     8     9     8   ar
     9     9     2   ar
    10    10     9    2
    11    11     8   ar
    12    12    11   ar
    13    13     7   ar
    14    13    12   ar
