@<TRIPOS>MOLECULE
7IOD_TEP_A2401
 13 14 0 0 0
SMALL
GASTEIGER

@<TRIPOS>ATOM
      1 C           1.1880   92.8700   51.3040 C.3     1  UNL1        0.1383
      2 N           1.0430   94.2240   51.8080 N.ar    1  UNL1       -0.2454
      3 C           2.0780   94.7870   52.4730 C.ar    1  UNL1        0.3350
      4 O           3.0850   94.1820   52.6360 O.2     1  UNL1       -0.2461
      5 N           1.9780   96.0420   52.9630 N.ar    1  UNL1       -0.2627
      6 C           3.1070   96.6100   53.6780 C.3     1  UNL1        0.1366
      7 C           0.8460   96.7490   52.7890 C.ar    1  UNL1        0.1716
      8 C          -0.1820   96.1970   52.1270 C.ar    1  UNL1        0.1731
      9 C          -0.0810   94.9130   51.6340 C.ar    1  UNL1        0.2850
     10 O          -1.0100   94.4540   51.0520 O.2     1  UNL1       -0.2651
     11 N          -1.1850   97.0890   52.0880 N.ar    1  UNL1       -0.2160
     12 C          -0.7670   98.1950   52.7300 C.ar    1  UNL1        0.2005
     13 N           0.4880   97.9860   53.1670 N.ar    1  UNL1       -0.2047
@<TRIPOS>BOND
     1     2     1    1
     2     3     2   ar
     3     4     3    2
     4     5     3   ar
     5     6     5    1
     6     7     5   ar
     7     8     7   ar
     8     9     8   ar
     9     9     2   ar
    10    10     9    2
    11    11     8   ar
    12    12    11   ar
    13    13     7   ar
    14    13    12   ar
