@<TRIPOS>MOLECULE
7IOF_TEP_A2401
 13 14 0 0 0
SMALL
GASTEIGER

@<TRIPOS>ATOM
      1 C           1.3580   92.8700   51.1860 C.3     1  UNL1        0.1383
      2 N           1.1650   94.2020   51.7330 N.ar    1  UNL1       -0.2454
      3 C           2.1500   94.7850   52.4560 C.ar    1  UNL1        0.3350
      4 O           3.1710   94.2130   52.6440 O.2     1  UNL1       -0.2461
      5 N           1.9780   96.0220   52.9680 N.ar    1  UNL1       -0.2627
      6 C           3.0520   96.6260   53.7410 C.3     1  UNL1        0.1366
      7 C           0.8280   96.6870   52.7650 C.ar    1  UNL1        0.1716
      8 C          -0.1490   96.1190   52.0520 C.ar    1  UNL1        0.1731
      9 C           0.0290   94.8540   51.5290 C.ar    1  UNL1        0.2850
     10 O          -0.8370   94.3460   50.8970 O.2     1  UNL1       -0.2651
     11 N          -1.1740   96.9820   52.0020 N.ar    1  UNL1       -0.2160
     12 C          -0.8250   98.0780   52.6810 C.ar    1  UNL1        0.2005
     13 N           0.4100   97.8990   53.1540 N.ar    1  UNL1       -0.2047
@<TRIPOS>BOND
     1     2     1    1
     2     3     2   ar
     3     4     3    2
     4     5     3   ar
     5     6     5    1
     6     7     5   ar
     7     8     7   ar
     8     9     8   ar
     9     9     2   ar
    10    10     9    2
    11    11     8   ar
    12    12    11   ar
    13    13    12   ar
    14    13     7   ar
