@<TRIPOS>MOLECULE
7IOG_TEP_A2401
 13 14 0 0 0
SMALL
GASTEIGER

@<TRIPOS>ATOM
      1 C           1.3110   92.8960   51.3860 C.3     1  UNL1        0.1383
      2 N           1.1510   94.2460   51.9010 N.ar    1  UNL1       -0.2454
      3 C           2.1550   94.8280   52.6010 C.ar    1  UNL1        0.3350
      4 O           3.1670   94.2450   52.8020 O.2     1  UNL1       -0.2461
      5 N           2.0080   96.0850   53.0780 N.ar    1  UNL1       -0.2627
      6 C           3.1010   96.6830   53.8260 C.3     1  UNL1        0.1366
      7 C           0.8690   96.7640   52.8650 C.ar    1  UNL1        0.1716
      8 C          -0.1230   96.1950   52.1760 C.ar    1  UNL1        0.1731
      9 C           0.0260   94.9150   51.6870 C.ar    1  UNL1        0.2850
     10 O          -0.8570   94.4110   51.0750 O.2     1  UNL1       -0.2651
     11 N          -1.1380   97.0670   52.1000 N.ar    1  UNL1       -0.2160
     12 C          -0.7590   98.1760   52.7470 C.ar    1  UNL1        0.2005
     13 N           0.4800   97.9960   53.2230 N.ar    1  UNL1       -0.2047
@<TRIPOS>BOND
     1     2     1    1
     2     3     2   ar
     3     4     3    2
     4     5     3   ar
     5     6     5    1
     6     7     5   ar
     7     8     7   ar
     8     9     8   ar
     9     9     2   ar
    10    10     9    2
    11    11     8   ar
    12    12    11   ar
    13    13     7   ar
    14    13    12   ar
