@<TRIPOS>MOLECULE
7IOG_TEP_A2401
 13 14 0 0 0
SMALL
GASTEIGER

@<TRIPOS>ATOM
      1 C           1.3240   92.9480   51.2860 C.3     1  UNL1        0.1383
      2 N           1.1540   94.2930   51.8130 N.ar    1  UNL1       -0.2454
      3 C           2.1530   94.8750   52.5190 C.ar    1  UNL1        0.3350
      4 O           3.1690   94.2980   52.7140 O.2     1  UNL1       -0.2461
      5 N           1.9970   96.1270   53.0080 N.ar    1  UNL1       -0.2627
      6 C           3.0850   96.7250   53.7610 C.3     1  UNL1        0.1366
      7 C           0.8530   96.7990   52.8000 C.ar    1  UNL1        0.1716
      8 C          -0.1340   96.2290   52.1050 C.ar    1  UNL1        0.1731
      9 C           0.0250   94.9560   51.6040 C.ar    1  UNL1        0.2850
     10 O          -0.8550   94.4500   50.9870 O.2     1  UNL1       -0.2651
     11 N          -1.1560   97.0950   52.0370 N.ar    1  UNL1       -0.2160
     12 C          -0.7850   98.2010   52.6940 C.ar    1  UNL1        0.2005
     13 N           0.4540   98.0250   53.1700 N.ar    1  UNL1       -0.2047
@<TRIPOS>BOND
     1     2     1    1
     2     3     2   ar
     3     4     3    2
     4     5     3   ar
     5     6     5    1
     6     7     5   ar
     7     8     7   ar
     8     9     8   ar
     9     9     2   ar
    10    10     9    2
    11    11     8   ar
    12    12    11   ar
    13    13     7   ar
    14    13    12   ar
