@<TRIPOS>MOLECULE
7IOH_TEP_A2401
 13 14 0 0 0
SMALL
GASTEIGER

@<TRIPOS>ATOM
      1 C           1.3000   92.9350   51.2840 C.3     1  UNL1        0.1383
      2 N           1.1180   94.2740   51.8250 N.ar    1  UNL1       -0.2454
      3 C           2.1130   94.8590   52.5360 C.ar    1  UNL1        0.3350
      4 O           3.1310   94.2800   52.7180 O.2     1  UNL1       -0.2461
      5 N           1.9470   96.1040   53.0380 N.ar    1  UNL1       -0.2627
      6 C           3.0220   96.7230   53.7970 C.3     1  UNL1        0.1366
      7 C           0.7930   96.7650   52.8340 C.ar    1  UNL1        0.1716
      8 C          -0.1920   96.1950   52.1350 C.ar    1  UNL1        0.1731
      9 C          -0.0180   94.9250   51.6240 C.ar    1  UNL1        0.2850
     10 O          -0.8910   94.4160   51.0030 O.2     1  UNL1       -0.2651
     11 N          -1.2210   97.0510   52.0760 N.ar    1  UNL1       -0.2160
     12 C          -0.8640   98.1550   52.7450 C.ar    1  UNL1        0.2005
     13 N           0.3800   97.9810   53.2140 N.ar    1  UNL1       -0.2047
@<TRIPOS>BOND
     1     2     1    1
     2     3     2   ar
     3     4     3    2
     4     5     3   ar
     5     6     5    1
     6     7     5   ar
     7     8     7   ar
     8     9     8   ar
     9     9     2   ar
    10    10     9    2
    11    11     8   ar
    12    12    11   ar
    13    13     7   ar
    14    13    12   ar
