@<TRIPOS>MOLECULE
7IOH_TEP_A2401
 13 14 0 0 0
SMALL
GASTEIGER

@<TRIPOS>ATOM
      1 C           1.2870   92.8820   51.3730 C.3     1  UNL1        0.1383
      2 N           1.1160   94.2270   51.9010 N.ar    1  UNL1       -0.2454
      3 C           2.1150   94.8110   52.6060 C.ar    1  UNL1        0.3350
      4 O           3.1290   94.2270   52.7930 O.2     1  UNL1       -0.2461
      5 N           1.9590   96.0620   53.0970 N.ar    1  UNL1       -0.2627
      6 C           3.0390   96.6800   53.8500 C.3     1  UNL1        0.1366
      7 C           0.8100   96.7300   52.8870 C.ar    1  UNL1        0.1716
      8 C          -0.1790   96.1610   52.1930 C.ar    1  UNL1        0.1731
      9 C          -0.0150   94.8850   51.6940 C.ar    1  UNL1        0.2850
     10 O          -0.8920   94.3780   51.0780 O.2     1  UNL1       -0.2651
     11 N          -1.2020   97.0250   52.1280 N.ar    1  UNL1       -0.2160
     12 C          -0.8360   98.1320   52.7860 C.ar    1  UNL1        0.2005
     13 N           0.4070   97.9530   53.2560 N.ar    1  UNL1       -0.2047
@<TRIPOS>BOND
     1     2     1    1
     2     3     2   ar
     3     4     3    2
     4     5     3   ar
     5     6     5    1
     6     7     5   ar
     7     8     7   ar
     8     9     8   ar
     9     9     2   ar
    10    10     9    2
    11    11     8   ar
    12    12    11   ar
    13    13     7   ar
    14    13    12   ar
