@<TRIPOS>MOLECULE
7IOI_TEP_A2401
 13 14 0 0 0
SMALL
GASTEIGER

@<TRIPOS>ATOM
      1 C           1.3640   92.9060   51.3510 C.3     1  UNL1        0.1383
      2 N           1.1910   94.2510   51.8740 N.ar    1  UNL1       -0.2454
      3 C           2.2000   94.8490   52.5570 C.ar    1  UNL1        0.3350
      4 O           3.2230   94.2770   52.7280 O.2     1  UNL1       -0.2461
      5 N           2.0440   96.0990   53.0450 N.ar    1  UNL1       -0.2627
      6 C           3.1360   96.7230   53.7730 C.3     1  UNL1        0.1366
      7 C           0.8830   96.7560   52.8550 C.ar    1  UNL1        0.1716
      8 C          -0.1140   96.1690   52.1840 C.ar    1  UNL1        0.1731
      9 C           0.0490   94.8940   51.6870 C.ar    1  UNL1        0.2850
     10 O          -0.8350   94.3750   51.0910 O.2     1  UNL1       -0.2651
     11 N          -1.1450   97.0240   52.1350 N.ar    1  UNL1       -0.2160
     12 C          -0.7730   98.1350   52.7770 C.ar    1  UNL1        0.2005
     13 N           0.4770   97.9760   53.2270 N.ar    1  UNL1       -0.2047
@<TRIPOS>BOND
     1     2     1    1
     2     3     2   ar
     3     4     3    2
     4     5     3   ar
     5     6     5    1
     6     7     5   ar
     7     8     7   ar
     8     9     8   ar
     9     9     2   ar
    10    10     9    2
    11    11     8   ar
    12    12    11   ar
    13    13     7   ar
    14    13    12   ar
