@<TRIPOS>MOLECULE
7IOI_TEP_A2401
 13 14 0 0 0
SMALL
GASTEIGER

@<TRIPOS>ATOM
      1 C           1.3830   92.9640   51.2520 C.3     1  UNL1        0.1383
      2 N           1.2000   94.3030   51.7890 N.ar    1  UNL1       -0.2454
      3 C           2.2040   94.9020   52.4780 C.ar    1  UNL1        0.3350
      4 O           3.2310   94.3360   52.6440 O.2     1  UNL1       -0.2461
      5 N           2.0380   96.1460   52.9780 N.ar    1  UNL1       -0.2627
      6 C           3.1260   96.7710   53.7130 C.3     1  UNL1        0.1366
      7 C           0.8730   96.7950   52.7950 C.ar    1  UNL1        0.1716
      8 C          -0.1200   96.2080   52.1180 C.ar    1  UNL1        0.1731
      9 C           0.0530   94.9400   51.6080 C.ar    1  UNL1        0.2850
     10 O          -0.8270   94.4200   51.0060 O.2     1  UNL1       -0.2651
     11 N          -1.1570   97.0550   52.0770 N.ar    1  UNL1       -0.2160
     12 C          -0.7940   98.1630   52.7300 C.ar    1  UNL1        0.2005
     13 N           0.4570   98.0090   53.1790 N.ar    1  UNL1       -0.2047
@<TRIPOS>BOND
     1     2     1    1
     2     3     2   ar
     3     4     3    2
     4     5     3   ar
     5     6     5    1
     6     7     5   ar
     7     8     7   ar
     8     9     8   ar
     9     9     2   ar
    10    10     9    2
    11    11     8   ar
    12    12    11   ar
    13    13     7   ar
    14    13    12   ar
