@<TRIPOS>MOLECULE
7IOJ_TEP_A2401
 13 14 0 0 0
SMALL
GASTEIGER

@<TRIPOS>ATOM
      1 C           0.8790   92.9670   51.2710 C.3     1  UNL1        0.1383
      2 N           0.8590   94.3150   51.8150 N.ar    1  UNL1       -0.2454
      3 C           1.9430   94.7810   52.4840 C.ar    1  UNL1        0.3350
      4 O           2.8990   94.0880   52.6210 O.2     1  UNL1       -0.2461
      5 N           1.9420   96.0310   52.9970 N.ar    1  UNL1       -0.2627
      6 C           3.1150   96.5110   53.7080 C.3     1  UNL1        0.1366
      7 C           0.8630   96.8210   52.8450 C.ar    1  UNL1        0.1716
      8 C          -0.2100   96.3660   52.1860 C.ar    1  UNL1        0.1731
      9 C          -0.2070   95.0890   51.6640 C.ar    1  UNL1        0.2850
     10 O          -1.1600   94.6930   51.0820 O.2     1  UNL1       -0.2651
     11 N          -1.1380   97.3300   52.1730 N.ar    1  UNL1       -0.2160
     12 C          -0.6280   98.3790   52.8270 C.ar    1  UNL1        0.2005
     13 N           0.6090   98.0720   53.2440 N.ar    1  UNL1       -0.2047
@<TRIPOS>BOND
     1     2     1    1
     2     3     2   ar
     3     4     3    2
     4     5     3   ar
     5     6     5    1
     6     7     5   ar
     7     8     7   ar
     8     9     8   ar
     9     9     2   ar
    10    10     9    2
    11    11     8   ar
    12    12    11   ar
    13    13     7   ar
    14    13    12   ar
