@<TRIPOS>MOLECULE
7IOL_TEP_A2401
 13 14 0 0 0
SMALL
GASTEIGER

@<TRIPOS>ATOM
      1 C           1.1580   92.8610   51.3100 C.3     1  UNL1        0.1383
      2 N           1.0240   94.2220   51.8010 N.ar    1  UNL1       -0.2454
      3 C           2.0640   94.7910   52.4670 C.ar    1  UNL1        0.3350
      4 O           3.0630   94.1700   52.6370 O.2     1  UNL1       -0.2461
      5 N           1.9720   96.0620   52.9390 N.ar    1  UNL1       -0.2627
      6 C           3.0900   96.6550   53.6480 C.3     1  UNL1        0.1366
      7 C           0.8490   96.7670   52.7500 C.ar    1  UNL1        0.1716
      8 C          -0.1790   96.2150   52.0950 C.ar    1  UNL1        0.1731
      9 C          -0.0920   94.9230   51.6160 C.ar    1  UNL1        0.2850
     10 O          -1.0180   94.4560   51.0390 O.2     1  UNL1       -0.2651
     11 N          -1.1720   97.1150   52.0430 N.ar    1  UNL1       -0.2160
     12 C          -0.7450   98.2230   52.6690 C.ar    1  UNL1        0.2005
     13 N           0.5070   98.0100   53.1110 N.ar    1  UNL1       -0.2047
@<TRIPOS>BOND
     1     2     1    1
     2     3     2   ar
     3     4     3    2
     4     5     3   ar
     5     6     5    1
     6     7     5   ar
     7     8     7   ar
     8     9     8   ar
     9     9     2   ar
    10    10     9    2
    11    11     8   ar
    12    12    11   ar
    13    13     7   ar
    14    13    12   ar
