@<TRIPOS>MOLECULE
7IOL_TEP_A2401
 13 14 0 0 0
SMALL
GASTEIGER

@<TRIPOS>ATOM
      1 C           1.1370   92.8310   51.3880 C.3     1  UNL1        0.1383
      2 N           1.0120   94.1970   51.8700 N.ar    1  UNL1       -0.2454
      3 C           2.0550   94.7650   52.5310 C.ar    1  UNL1        0.3350
      4 O           3.0510   94.1390   52.7050 O.2     1  UNL1       -0.2461
      5 N           1.9710   96.0390   52.9930 N.ar    1  UNL1       -0.2627
      6 C           3.0920   96.6320   53.6970 C.3     1  UNL1        0.1366
      7 C           0.8510   96.7490   52.8000 C.ar    1  UNL1        0.1716
      8 C          -0.1800   96.1980   52.1500 C.ar    1  UNL1        0.1731
      9 C          -0.1000   94.9020   51.6800 C.ar    1  UNL1        0.2850
     10 O          -1.0290   94.4360   51.1070 O.2     1  UNL1       -0.2651
     11 N          -1.1680   97.1040   52.0910 N.ar    1  UNL1       -0.2160
     12 C          -0.7340   98.2140   52.7090 C.ar    1  UNL1        0.2005
     13 N           0.5170   97.9970   53.1520 N.ar    1  UNL1       -0.2047
@<TRIPOS>BOND
     1     2     1    1
     2     3     2   ar
     3     4     3    2
     4     5     3   ar
     5     6     5    1
     6     7     5   ar
     7     8     7   ar
     8     9     8   ar
     9     9     2   ar
    10    10     9    2
    11    11     8   ar
    12    12    11   ar
    13    13     7   ar
    14    13    12   ar
