@<TRIPOS>MOLECULE
7IOM_TEP_A2401
 13 14 0 0 0
SMALL
GASTEIGER

@<TRIPOS>ATOM
      1 C           1.0900   92.8630   51.3290 C.3     1  UNL1        0.1383
      2 N           0.9990   94.2180   51.8500 N.ar    1  UNL1       -0.2454
      3 C           2.0380   94.7590   52.5280 C.ar    1  UNL1        0.3350
      4 O           3.0180   94.1080   52.6910 O.2     1  UNL1       -0.2461
      5 N           1.9400   96.0250   53.0110 N.ar    1  UNL1       -0.2627
      6 C           3.0390   96.6380   53.7440 C.3     1  UNL1        0.1366
      7 C           0.8200   96.7370   52.8090 C.ar    1  UNL1        0.1716
      8 C          -0.2040   96.2000   52.1370 C.ar    1  UNL1        0.1731
      9 C          -0.1060   94.9150   51.6510 C.ar    1  UNL1        0.2850
     10 O          -1.0040   94.4220   51.0510 O.2     1  UNL1       -0.2651
     11 N          -1.1880   97.1060   52.0770 N.ar    1  UNL1       -0.2160
     12 C          -0.7570   98.1980   52.7150 C.ar    1  UNL1        0.2005
     13 N           0.4790   97.9780   53.1700 N.ar    1  UNL1       -0.2047
@<TRIPOS>BOND
     1     2     1    1
     2     3     2   ar
     3     4     3    2
     4     5     3   ar
     5     6     5    1
     6     7     5   ar
     7     8     7   ar
     8     9     8   ar
     9     9     2   ar
    10    10     9    2
    11    11     8   ar
    12    12    11   ar
    13    13     7   ar
    14    13    12   ar
