@<TRIPOS>MOLECULE
7ION_TEP_A1202
 13 14 0 0 0
SMALL
GASTEIGER

@<TRIPOS>ATOM
      1 C           1.3520   92.7920   51.1550 C.3     1  UNL1        0.1383
      2 N           1.2150   94.1180   51.7330 N.ar    1  UNL1       -0.2454
      3 C           2.2300   94.6360   52.4570 C.ar    1  UNL1        0.3350
      4 O           3.2230   94.0090   52.6120 O.2     1  UNL1       -0.2461
      5 N           2.1180   95.8660   53.0010 N.ar    1  UNL1       -0.2627
      6 C           3.2240   96.4050   53.7760 C.3     1  UNL1        0.1366
      7 C           0.9920   96.5820   52.8270 C.ar    1  UNL1        0.1716
      8 C          -0.0150   96.0720   52.1140 C.ar    1  UNL1        0.1731
      9 C           0.1040   94.8170   51.5580 C.ar    1  UNL1        0.2850
     10 O          -0.7880   94.3590   50.9210 O.2     1  UNL1       -0.2651
     11 N          -1.0060   96.9790   52.0910 N.ar    1  UNL1       -0.2160
     12 C          -0.6010   98.0400   52.7940 C.ar    1  UNL1        0.2005
     13 N           0.6280   97.8000   53.2500 N.ar    1  UNL1       -0.2047
@<TRIPOS>BOND
     1     2     1    1
     2     3     2   ar
     3     4     3    2
     4     5     3   ar
     5     6     5    1
     6     7     5   ar
     7     8     7   ar
     8     9     8   ar
     9     9     2   ar
    10    10     9    2
    11    11     8   ar
    12    12    11   ar
    13    13    12   ar
    14    13     7   ar
