@<TRIPOS>MOLECULE
7IOO_TEP_A2401
 13 14 0 0 0
SMALL
GASTEIGER

@<TRIPOS>ATOM
      1 C           1.1420   92.7870   51.3400 C.3     1  UNL1        0.1383
      2 N           1.0080   94.1420   51.8520 N.ar    1  UNL1       -0.2454
      3 C           2.0300   94.6980   52.5500 C.ar    1  UNL1        0.3350
      4 O           3.0250   94.0810   52.7410 O.2     1  UNL1       -0.2461
      5 N           1.9230   95.9560   53.0320 N.ar    1  UNL1       -0.2627
      6 C           3.0300   96.5320   53.7760 C.3     1  UNL1        0.1366
      7 C           0.8010   96.6630   52.8200 C.ar    1  UNL1        0.1716
      8 C          -0.2090   96.1170   52.1310 C.ar    1  UNL1        0.1731
      9 C          -0.1000   94.8360   51.6400 C.ar    1  UNL1        0.2850
     10 O          -1.0040   94.3660   51.0320 O.2     1  UNL1       -0.2651
     11 N          -1.2010   97.0130   52.0590 N.ar    1  UNL1       -0.2160
     12 C          -0.7950   98.1130   52.7040 C.ar    1  UNL1        0.2005
     13 N           0.4410   97.9020   53.1780 N.ar    1  UNL1       -0.2047
@<TRIPOS>BOND
     1     2     1    1
     2     3     2   ar
     3     4     3    2
     4     5     3   ar
     5     6     5    1
     6     7     5   ar
     7     8     7   ar
     8     9     8   ar
     9     9     2   ar
    10    10     9    2
    11    11     8   ar
    12    12    11   ar
    13    13     7   ar
    14    13    12   ar
