@<TRIPOS>MOLECULE
7IOP_TEP_A1202
 13 14 0 0 0
SMALL
GASTEIGER

@<TRIPOS>ATOM
      1 C           1.3790   92.8820   51.2100 C.3     1  UNL1        0.1383
      2 N           1.1990   94.2190   51.7500 N.ar    1  UNL1       -0.2454
      3 C           2.1900   94.7960   52.4700 C.ar    1  UNL1        0.3350
      4 O           3.2030   94.2080   52.6560 O.2     1  UNL1       -0.2461
      5 N           2.0290   96.0380   52.9760 N.ar    1  UNL1       -0.2627
      6 C           3.1030   96.6450   53.7460 C.3     1  UNL1        0.1366
      7 C           0.8800   96.7090   52.7660 C.ar    1  UNL1        0.1716
      8 C          -0.1020   96.1460   52.0570 C.ar    1  UNL1        0.1731
      9 C           0.0670   94.8760   51.5430 C.ar    1  UNL1        0.2850
     10 O          -0.8010   94.3710   50.9120 O.2     1  UNL1       -0.2651
     11 N          -1.1230   97.0150   51.9990 N.ar    1  UNL1       -0.2160
     12 C          -0.7640   98.1120   52.6720 C.ar    1  UNL1        0.2005
     13 N           0.4720   97.9260   53.1470 N.ar    1  UNL1       -0.2047
@<TRIPOS>BOND
     1     2     1    1
     2     3     2   ar
     3     4     3    2
     4     5     3   ar
     5     6     5    1
     6     7     5   ar
     7     8     7   ar
     8     9     8   ar
     9     9     2   ar
    10    10     9    2
    11    11     8   ar
    12    12    11   ar
    13    13     7   ar
    14    13    12   ar
