@<TRIPOS>MOLECULE
7IOS_TEP_A2401
 13 14 0 0 0
SMALL
GASTEIGER

@<TRIPOS>ATOM
      1 C           1.1560   92.9450   51.2670 C.3     1  UNL1        0.1383
      2 N           1.1040   94.2890   51.8160 N.ar    1  UNL1       -0.2454
      3 C           2.1600   94.7670   52.5190 C.ar    1  UNL1        0.3350
      4 O           3.1230   94.0920   52.6890 O.2     1  UNL1       -0.2461
      5 N           2.1260   96.0160   53.0330 N.ar    1  UNL1       -0.2627
      6 C           3.2690   96.5070   53.7820 C.3     1  UNL1        0.1366
      7 C           1.0430   96.7900   52.8490 C.ar    1  UNL1        0.1716
      8 C          -0.0040   96.3250   52.1570 C.ar    1  UNL1        0.1731
      9 C           0.0350   95.0500   51.6320 C.ar    1  UNL1        0.2850
     10 O          -0.8880   94.6330   51.0190 O.2     1  UNL1       -0.2651
     11 N          -0.9370   97.2910   52.1240 N.ar    1  UNL1       -0.2160
     12 C          -0.4590   98.3470   52.7990 C.ar    1  UNL1        0.2005
     13 N           0.7630   98.0390   53.2460 N.ar    1  UNL1       -0.2047
@<TRIPOS>BOND
     1     2     1    1
     2     3     2   ar
     3     4     3    2
     4     5     3   ar
     5     6     5    1
     6     7     5   ar
     7     8     7   ar
     8     9     8   ar
     9     9     2   ar
    10    10     9    2
    11    11     8   ar
    12    12    11   ar
    13    13     7   ar
    14    13    12   ar
