@<TRIPOS>MOLECULE
7IOT_TEP_A2401
 13 14 0 0 0
SMALL
GASTEIGER

@<TRIPOS>ATOM
      1 C           1.0670   92.7060   51.3650 C.3     1  UNL1        0.1383
      2 N           0.9740   94.0740   51.8570 N.ar    1  UNL1       -0.2454
      3 C           2.0060   94.6020   52.5660 C.ar    1  UNL1        0.3350
      4 O           2.9740   93.9480   52.7810 O.2     1  UNL1       -0.2461
      5 N           1.9370   95.8700   53.0270 N.ar    1  UNL1       -0.2627
      6 C           3.0530   96.4100   53.7830 C.3     1  UNL1        0.1366
      7 C           0.8430   96.6160   52.7870 C.ar    1  UNL1        0.1716
      8 C          -0.1770   96.1020   52.0900 C.ar    1  UNL1        0.1731
      9 C          -0.1060   94.8070   51.6160 C.ar    1  UNL1        0.2850
     10 O          -1.0150   94.3570   50.9960 O.2     1  UNL1       -0.2651
     11 N          -1.1330   97.0350   51.9860 N.ar    1  UNL1       -0.2160
     12 C          -0.6950   98.1290   52.6270 C.ar    1  UNL1        0.2005
     13 N           0.5250   97.8740   53.1220 N.ar    1  UNL1       -0.2047
@<TRIPOS>BOND
     1     2     1    1
     2     3     2   ar
     3     4     3    2
     4     5     3   ar
     5     6     5    1
     6     7     5   ar
     7     8     7   ar
     8     9     8   ar
     9     9     2   ar
    10    10     9    2
    11    11     8   ar
    12    12    11   ar
    13    13     7   ar
    14    13    12   ar
