@<TRIPOS>MOLECULE
7IOT_TEP_A2401
 13 14 0 0 0
SMALL
GASTEIGER

@<TRIPOS>ATOM
      1 C           1.0940   92.7710   51.2750 C.3     1  UNL1        0.1383
      2 N           0.9930   94.1330   51.7800 N.ar    1  UNL1       -0.2454
      3 C           2.0210   94.6620   52.4940 C.ar    1  UNL1        0.3350
      4 O           2.9940   94.0130   52.7020 O.2     1  UNL1       -0.2461
      5 N           1.9440   95.9250   52.9670 N.ar    1  UNL1       -0.2627
      6 C           3.0560   96.4650   53.7280 C.3     1  UNL1        0.1366
      7 C           0.8440   96.6660   52.7340 C.ar    1  UNL1        0.1716
      8 C          -0.1720   96.1520   52.0330 C.ar    1  UNL1        0.1731
      9 C          -0.0920   94.8620   51.5460 C.ar    1  UNL1        0.2850
     10 O          -0.9980   94.4120   50.9220 O.2     1  UNL1       -0.2651
     11 N          -1.1340   97.0790   51.9380 N.ar    1  UNL1       -0.2160
     12 C          -0.7040   98.1700   52.5900 C.ar    1  UNL1        0.2005
     13 N           0.5180   97.9190   53.0820 N.ar    1  UNL1       -0.2047
@<TRIPOS>BOND
     1     2     1    1
     2     3     2   ar
     3     4     3    2
     4     5     3   ar
     5     6     5    1
     6     7     5   ar
     7     8     7   ar
     8     9     8   ar
     9     9     2   ar
    10    10     9    2
    11    11     8   ar
    12    12    11   ar
    13    13     7   ar
    14    13    12   ar
