@<TRIPOS>MOLECULE
7IOU_TEP_A2401
 13 14 0 0 0
SMALL
GASTEIGER

@<TRIPOS>ATOM
      1 C           1.4360   92.8840   51.4550 C.3     1  UNL1        0.1383
      2 N           1.2220   94.2370   51.9500 N.ar    1  UNL1       -0.2454
      3 C           2.2090   94.8630   52.6380 C.ar    1  UNL1        0.3350
      4 O           3.2400   94.3070   52.8340 O.2     1  UNL1       -0.2461
      5 N           2.0210   96.1210   53.1040 N.ar    1  UNL1       -0.2627
      6 C           3.0930   96.7740   53.8380 C.3     1  UNL1        0.1366
      7 C           0.8530   96.7550   52.8840 C.ar    1  UNL1        0.1716
      8 C          -0.1230   96.1390   52.2060 C.ar    1  UNL1        0.1731
      9 C           0.0720   94.8580   51.7330 C.ar    1  UNL1        0.2850
     10 O          -0.7910   94.3110   51.1320 O.2     1  UNL1       -0.2651
     11 N          -1.1710   96.9720   52.1240 N.ar    1  UNL1       -0.2160
     12 C          -0.8320   98.1050   52.7540 C.ar    1  UNL1        0.2005
     13 N           0.4170   97.9740   53.2280 N.ar    1  UNL1       -0.2047
@<TRIPOS>BOND
     1     2     1    1
     2     3     2   ar
     3     4     3    2
     4     5     3   ar
     5     6     5    1
     6     7     5   ar
     7     8     7   ar
     8     9     8   ar
     9     9     2   ar
    10    10     9    2
    11    11     8   ar
    12    12    11   ar
    13    13     7   ar
    14    13    12   ar
