@<TRIPOS>MOLECULE
7IOU_TEP_A2401
 13 14 0 0 0
SMALL
GASTEIGER

@<TRIPOS>ATOM
      1 C           1.4560   92.9370   51.3610 C.3     1  UNL1        0.1383
      2 N           1.2340   94.2840   51.8680 N.ar    1  UNL1       -0.2454
      3 C           2.2160   94.9110   52.5610 C.ar    1  UNL1        0.3350
      4 O           3.2510   94.3590   52.7520 O.2     1  UNL1       -0.2461
      5 N           2.0200   96.1640   53.0370 N.ar    1  UNL1       -0.2627
      6 C           3.0880   96.8180   53.7760 C.3     1  UNL1        0.1366
      7 C           0.8480   96.7920   52.8220 C.ar    1  UNL1        0.1716
      8 C          -0.1240   96.1760   52.1390 C.ar    1  UNL1        0.1731
      9 C           0.0790   94.8990   51.6560 C.ar    1  UNL1        0.2850
     10 O          -0.7800   94.3520   51.0500 O.2     1  UNL1       -0.2651
     11 N          -1.1770   97.0020   52.0640 N.ar    1  UNL1       -0.2160
     12 C          -0.8460   98.1310   52.7040 C.ar    1  UNL1        0.2005
     13 N           0.4050   98.0050   53.1770 N.ar    1  UNL1       -0.2047
@<TRIPOS>BOND
     1     2     1    1
     2     3     2   ar
     3     4     3    2
     4     5     3   ar
     5     6     5    1
     6     7     5   ar
     7     8     7   ar
     8     9     8   ar
     9     9     2   ar
    10    10     9    2
    11    11     8   ar
    12    12    11   ar
    13    13     7   ar
    14    13    12   ar
