@<TRIPOS>MOLECULE
7IOW_TEP_A2401
 13 14 0 0 0
SMALL
GASTEIGER

@<TRIPOS>ATOM
      1 C           1.3500   92.8690   51.2890 C.3     1  UNL1        0.1383
      2 N           1.1770   94.2150   51.8130 N.ar    1  UNL1       -0.2454
      3 C           2.1810   94.7940   52.5230 C.ar    1  UNL1        0.3350
      4 O           3.1910   94.1990   52.7120 O.2     1  UNL1       -0.2461
      5 N           2.0320   96.0450   53.0150 N.ar    1  UNL1       -0.2627
      6 C           3.1140   96.6520   53.7730 C.3     1  UNL1        0.1366
      7 C           0.8860   96.7220   52.8030 C.ar    1  UNL1        0.1716
      8 C          -0.1050   96.1560   52.1030 C.ar    1  UNL1        0.1731
      9 C           0.0500   94.8790   51.6020 C.ar    1  UNL1        0.2850
     10 O          -0.8280   94.3750   50.9820 O.2     1  UNL1       -0.2651
     11 N          -1.1210   97.0310   52.0370 N.ar    1  UNL1       -0.2160
     12 C          -0.7460   98.1330   52.6980 C.ar    1  UNL1        0.2005
     13 N           0.4910   97.9490   53.1730 N.ar    1  UNL1       -0.2047
@<TRIPOS>BOND
     1     2     1    1
     2     3     2   ar
     3     4     3    2
     4     5     3   ar
     5     6     5    1
     6     7     5   ar
     7     8     7   ar
     8     9     8   ar
     9     9     2   ar
    10    10     9    2
    11    11     8   ar
    12    12    11   ar
    13    13     7   ar
    14    13    12   ar
