@<TRIPOS>MOLECULE
7IOY_TEP_A1202
 13 14 0 0 0
SMALL
GASTEIGER

@<TRIPOS>ATOM
      1 C           0.2660   93.2200   51.2340 C.3     1  UNL1        0.1383
      2 N           0.5050   94.5320   51.8240 N.ar    1  UNL1       -0.2454
      3 C           1.6900   94.7870   52.4290 C.ar    1  UNL1        0.3350
      4 O           2.5260   93.9430   52.4790 O.2     1  UNL1       -0.2461
      5 N           1.9280   95.9960   52.9800 N.ar    1  UNL1       -0.2627
      6 C           3.2110   96.2400   53.6230 C.3     1  UNL1        0.1366
      7 C           0.9880   96.9570   52.9290 C.ar    1  UNL1        0.1716
      8 C          -0.1870   96.7140   52.3330 C.ar    1  UNL1        0.1731
      9 C          -0.4260   95.4740   51.7710 C.ar    1  UNL1        0.2850
     10 O          -1.4630   95.2500   51.2400 O.2     1  UNL1       -0.2651
     11 N          -0.9400   97.8230   52.4180 N.ar    1  UNL1       -0.2160
     12 C          -0.2130   98.7420   53.0700 C.ar    1  UNL1        0.2005
     13 N           0.9780   98.2140   53.3890 N.ar    1  UNL1       -0.2047
@<TRIPOS>BOND
     1     2     1    1
     2     3     2   ar
     3     4     3    2
     4     5     3   ar
     5     6     5    1
     6     7     5   ar
     7     8     7   ar
     8     9     8   ar
     9     9     2   ar
    10    10     9    2
    11    11     8   ar
    12    12    11   ar
    13    13     7   ar
    14    13    12   ar
