@<TRIPOS>MOLECULE
7IOZ_TEP_A1202
 13 14 0 0 0
SMALL
GASTEIGER

@<TRIPOS>ATOM
      1 C           1.2260   92.8580   51.2640 C.3     1  UNL1        0.1383
      2 N           1.0790   94.2010   51.7940 N.ar    1  UNL1       -0.2454
      3 C           2.0940   94.7670   52.4930 C.ar    1  UNL1        0.3350
      4 O           3.0990   94.1630   52.6700 O.2     1  UNL1       -0.2461
      5 N           1.9640   96.0160   52.9890 N.ar    1  UNL1       -0.2627
      6 C           3.0580   96.6120   53.7360 C.3     1  UNL1        0.1366
      7 C           0.8240   96.7030   52.7890 C.ar    1  UNL1        0.1716
      8 C          -0.1760   96.1480   52.1000 C.ar    1  UNL1        0.1731
      9 C          -0.0440   94.8740   51.5960 C.ar    1  UNL1        0.2850
     10 O          -0.9400   94.3900   50.9850 O.2     1  UNL1       -0.2651
     11 N          -1.1860   97.0270   52.0450 N.ar    1  UNL1       -0.2160
     12 C          -0.8010   98.1260   52.7010 C.ar    1  UNL1        0.2005
     13 N           0.4400   97.9310   53.1640 N.ar    1  UNL1       -0.2047
@<TRIPOS>BOND
     1     2     1    1
     2     3     2   ar
     3     4     3    2
     4     5     3   ar
     5     6     5    1
     6     7     5   ar
     7     8     7   ar
     8     9     8   ar
     9     9     2   ar
    10    10     9    2
    11    11     8   ar
    12    12    11   ar
    13    13     7   ar
    14    13    12   ar
