@<TRIPOS>MOLECULE
7IOZ_TEP_A1202
 13 14 0 0 0
SMALL
GASTEIGER

@<TRIPOS>ATOM
      1 C           1.2100   92.8230   51.3370 C.3     1  UNL1        0.1383
      2 N           1.0700   94.1700   51.8600 N.ar    1  UNL1       -0.2454
      3 C           2.0890   94.7350   52.5550 C.ar    1  UNL1        0.3350
      4 O           3.0910   94.1270   52.7350 O.2     1  UNL1       -0.2461
      5 N           1.9650   95.9870   53.0440 N.ar    1  UNL1       -0.2627
      6 C           3.0630   96.5820   53.7860 C.3     1  UNL1        0.1366
      7 C           0.8280   96.6780   52.8410 C.ar    1  UNL1        0.1716
      8 C          -0.1750   96.1250   52.1560 C.ar    1  UNL1        0.1731
      9 C          -0.0490   94.8470   51.6580 C.ar    1  UNL1        0.2850
     10 O          -0.9480   94.3640   51.0510 O.2     1  UNL1       -0.2651
     11 N          -1.1800   97.0080   52.0960 N.ar    1  UNL1       -0.2160
     12 C          -0.7900   98.1090   52.7460 C.ar    1  UNL1        0.2005
     13 N           0.4510   97.9100   53.2090 N.ar    1  UNL1       -0.2047
@<TRIPOS>BOND
     1     2     1    1
     2     3     2   ar
     3     4     3    2
     4     5     3   ar
     5     6     5    1
     6     7     5   ar
     7     8     7   ar
     8     9     8   ar
     9     9     2   ar
    10    10     9    2
    11    11     8   ar
    12    12    11   ar
    13    13     7   ar
    14    13    12   ar
