@<TRIPOS>MOLECULE
7IP0_TEP_A2401
 13 14 0 0 0
SMALL
GASTEIGER

@<TRIPOS>ATOM
      1 C           0.0990   93.2460   51.3260 C.3     1  UNL1        0.1383
      2 N           0.4210   94.5490   51.8830 N.ar    1  UNL1       -0.2454
      3 C           1.6200   94.7400   52.4840 C.ar    1  UNL1        0.3350
      4 O           2.4020   93.8490   52.5550 O.2     1  UNL1       -0.2461
      5 N           1.9310   95.9460   53.0010 N.ar    1  UNL1       -0.2627
      6 C           3.2230   96.1280   53.6410 C.3     1  UNL1        0.1366
      7 C           1.0490   96.9580   52.9240 C.ar    1  UNL1        0.1716
      8 C          -0.1380   96.7770   52.3340 C.ar    1  UNL1        0.1731
      9 C          -0.4520   95.5450   51.8030 C.ar    1  UNL1        0.2850
     10 O          -1.5050   95.3810   51.2770 O.2     1  UNL1       -0.2651
     11 N          -0.8220   97.9310   52.3860 N.ar    1  UNL1       -0.2160
     12 C          -0.0460   98.8200   53.0150 C.ar    1  UNL1        0.2005
     13 N           1.1070   98.2240   53.3480 N.ar    1  UNL1       -0.2047
@<TRIPOS>BOND
     1     2     1    1
     2     3     2   ar
     3     4     3    2
     4     5     3   ar
     5     6     5    1
     6     7     5   ar
     7     8     7   ar
     8     9     8   ar
     9     9     2   ar
    10    10     9    2
    11    11     8   ar
    12    12    11   ar
    13    13     7   ar
    14    13    12   ar
