@<TRIPOS>MOLECULE
7IP1_TEP_A2401
 13 14 0 0 0
SMALL
GASTEIGER

@<TRIPOS>ATOM
      1 C           0.3970   92.9800   51.1400 C.3     1  UNL1        0.1383
      2 N           0.5510   94.3090   51.7140 N.ar    1  UNL1       -0.2454
      3 C           1.7080   94.6480   52.3410 C.ar    1  UNL1        0.3350
      4 O           2.5900   93.8580   52.4200 O.2     1  UNL1       -0.2461
      5 N           1.8640   95.8790   52.8710 N.ar    1  UNL1       -0.2627
      6 C           3.1150   96.2160   53.5320 C.3     1  UNL1        0.1366
      7 C           0.8670   96.7770   52.7850 C.ar    1  UNL1        0.1716
      8 C          -0.2790   96.4530   52.1710 C.ar    1  UNL1        0.1731
      9 C          -0.4330   95.1930   51.6300 C.ar    1  UNL1        0.2850
     10 O          -1.4450   94.9040   51.0860 O.2     1  UNL1       -0.2651
     11 N          -1.1000   97.5130   52.2210 N.ar    1  UNL1       -0.2160
     12 C          -0.4540   98.4900   52.8710 C.ar    1  UNL1        0.2005
     13 N           0.7580   98.0380   53.2200 N.ar    1  UNL1       -0.2047
@<TRIPOS>BOND
     1     2     1    1
     2     3     2   ar
     3     4     3    2
     4     5     3   ar
     5     6     5    1
     6     7     5   ar
     7     8     7   ar
     8     9     8   ar
     9     9     2   ar
    10    10     9    2
    11    11     8   ar
    12    12    11   ar
    13    13     7   ar
    14    13    12   ar
