@<TRIPOS>MOLECULE
7IP2_TEP_A2401
 13 14 0 0 0
SMALL
GASTEIGER

@<TRIPOS>ATOM
      1 C           1.2440   92.9390   51.2450 C.3     1  UNL1        0.1383
      2 N           1.0810   94.2750   51.7920 N.ar    1  UNL1       -0.2454
      3 C           2.0820   94.8410   52.5080 C.ar    1  UNL1        0.3350
      4 O           3.0920   94.2470   52.6880 O.2     1  UNL1       -0.2461
      5 N           1.9370   96.0830   53.0190 N.ar    1  UNL1       -0.2627
      6 C           3.0210   96.6740   53.7820 C.3     1  UNL1        0.1366
      7 C           0.7930   96.7630   52.8180 C.ar    1  UNL1        0.1716
      8 C          -0.1980   96.2070   52.1120 C.ar    1  UNL1        0.1731
      9 C          -0.0470   94.9390   51.5920 C.ar    1  UNL1        0.2850
     10 O          -0.9210   94.4410   50.9650 O.2     1  UNL1       -0.2651
     11 N          -1.2110   97.0820   52.0610 N.ar    1  UNL1       -0.2160
     12 C          -0.8410   98.1760   52.7360 C.ar    1  UNL1        0.2005
     13 N           0.3960   97.9820   53.2060 N.ar    1  UNL1       -0.2047
@<TRIPOS>BOND
     1     2     1    1
     2     3     2   ar
     3     4     3    2
     4     5     3   ar
     5     6     5    1
     6     7     5   ar
     7     8     7   ar
     8     9     8   ar
     9     9     2   ar
    10    10     9    2
    11    11     8   ar
    12    12    11   ar
    13    13     7   ar
    14    13    12   ar
