@<TRIPOS>MOLECULE
7IP3_TEP_A2401
 13 14 0 0 0
SMALL
GASTEIGER

@<TRIPOS>ATOM
      1 C           1.0560   92.8550   51.2420 C.3     1  UNL1        0.1383
      2 N           1.0080   94.2030   51.7800 N.ar    1  UNL1       -0.2454
      3 C           2.0660   94.7270   52.4460 C.ar    1  UNL1        0.3350
      4 O           3.0510   94.0670   52.5930 O.2     1  UNL1       -0.2461
      5 N           1.9880   95.9940   52.9370 N.ar    1  UNL1       -0.2627
      6 C           3.1000   96.6000   53.6560 C.3     1  UNL1        0.1366
      7 C           0.8740   96.7170   52.7600 C.ar    1  UNL1        0.1716
      8 C          -0.1690   96.1990   52.1040 C.ar    1  UNL1        0.1731
      9 C          -0.0920   94.9190   51.6100 C.ar    1  UNL1        0.2850
     10 O          -1.0040   94.4440   51.0260 O.2     1  UNL1       -0.2651
     11 N          -1.1390   97.1210   52.0700 N.ar    1  UNL1       -0.2160
     12 C          -0.6900   98.2060   52.7090 C.ar    1  UNL1        0.2005
     13 N           0.5530   97.9620   53.1370 N.ar    1  UNL1       -0.2047
@<TRIPOS>BOND
     1     2     1    1
     2     3     2   ar
     3     4     3    2
     4     5     3   ar
     5     6     5    1
     6     7     5   ar
     7     8     7   ar
     8     9     8   ar
     9     9     2   ar
    10    10     9    2
    11    11     8   ar
    12    12    11   ar
    13    13     7   ar
    14    13    12   ar
