@<TRIPOS>MOLECULE
7IP5_TEP_A2401
 13 14 0 0 0
SMALL
GASTEIGER

@<TRIPOS>ATOM
      1 C           1.0670   92.7870   51.3480 C.3     1  UNL1        0.1383
      2 N           0.9630   94.1450   51.8530 N.ar    1  UNL1       -0.2454
      3 C           2.0130   94.6800   52.5250 C.ar    1  UNL1        0.3350
      4 O           2.9980   94.0370   52.6920 O.2     1  UNL1       -0.2461
      5 N           1.9420   95.9410   53.0050 N.ar    1  UNL1       -0.2627
      6 C           3.0800   96.4930   53.7210 C.3     1  UNL1        0.1366
      7 C           0.8290   96.6760   52.8190 C.ar    1  UNL1        0.1716
      8 C          -0.2080   96.1520   52.1560 C.ar    1  UNL1        0.1731
      9 C          -0.1380   94.8640   51.6660 C.ar    1  UNL1        0.2850
     10 O          -1.0650   94.4090   51.0800 O.2     1  UNL1       -0.2651
     11 N          -1.1820   97.0690   52.1050 N.ar    1  UNL1       -0.2160
     12 C          -0.7330   98.1590   52.7400 C.ar    1  UNL1        0.2005
     13 N           0.5100   97.9240   53.1850 N.ar    1  UNL1       -0.2047
@<TRIPOS>BOND
     1     2     1    1
     2     3     2   ar
     3     4     3    2
     4     5     3   ar
     5     6     5    1
     6     7     5   ar
     7     8     7   ar
     8     9     8   ar
     9     9     2   ar
    10    10     9    2
    11    11     8   ar
    12    12    11   ar
    13    13     7   ar
    14    13    12   ar
