@<TRIPOS>MOLECULE
7IP6_TEP_A2401
 13 14 0 0 0
SMALL
GASTEIGER

@<TRIPOS>ATOM
      1 C           1.3890   92.8630   51.2510 C.3     1  UNL1        0.1383
      2 N           1.1970   94.2070   51.7700 N.ar    1  UNL1       -0.2454
      3 C           2.1920   94.8100   52.4640 C.ar    1  UNL1        0.3350
      4 O           3.2200   94.2450   52.6480 O.2     1  UNL1       -0.2461
      5 N           2.0200   96.0590   52.9470 N.ar    1  UNL1       -0.2627
      6 C           3.1020   96.6860   53.6880 C.3     1  UNL1        0.1366
      7 C           0.8620   96.7120   52.7430 C.ar    1  UNL1        0.1716
      8 C          -0.1230   96.1210   52.0600 C.ar    1  UNL1        0.1731
      9 C           0.0540   94.8460   51.5650 C.ar    1  UNL1        0.2850
     10 O          -0.8200   94.3180   50.9580 O.2     1  UNL1       -0.2651
     11 N          -1.1560   96.9740   52.0000 N.ar    1  UNL1       -0.2160
     12 C          -0.8010   98.0900   52.6460 C.ar    1  UNL1        0.2005
     13 N           0.4420   97.9310   53.1100 N.ar    1  UNL1       -0.2047
@<TRIPOS>BOND
     1     2     1    1
     2     3     2   ar
     3     4     3    2
     4     5     3   ar
     5     6     5    1
     6     7     5   ar
     7     8     7   ar
     8     9     8   ar
     9     9     2   ar
    10    10     9    2
    11    11     8   ar
    12    12    11   ar
    13    13    12   ar
    14    13     7   ar
