@<TRIPOS>MOLECULE
7IP6_TEP_A2401
 13 14 0 0 0
SMALL
GASTEIGER

@<TRIPOS>ATOM
      1 C           1.3730   92.8160   51.3440 C.3     1  UNL1        0.1383
      2 N           1.1880   94.1660   51.8510 N.ar    1  UNL1       -0.2454
      3 C           2.1880   94.7700   52.5380 C.ar    1  UNL1        0.3350
      4 O           3.2120   94.2010   52.7270 O.2     1  UNL1       -0.2461
      5 N           2.0240   96.0250   53.0100 N.ar    1  UNL1       -0.2627
      6 C           3.1090   96.6520   53.7440 C.3     1  UNL1        0.1366
      7 C           0.8690   96.6820   52.8020 C.ar    1  UNL1        0.1716
      8 C          -0.1200   96.0900   52.1240 C.ar    1  UNL1        0.1731
      9 C           0.0490   94.8100   51.6410 C.ar    1  UNL1        0.2850
     10 O          -0.8280   94.2810   51.0400 O.2     1  UNL1       -0.2651
     11 N          -1.1480   96.9480   52.0580 N.ar    1  UNL1       -0.2160
     12 C          -0.7870   98.0690   52.6930 C.ar    1  UNL1        0.2005
     13 N           0.4560   97.9070   53.1570 N.ar    1  UNL1       -0.2047
@<TRIPOS>BOND
     1     2     1    1
     2     3     2   ar
     3     4     3    2
     4     5     3   ar
     5     6     5    1
     6     7     5   ar
     7     8     7   ar
     8     9     8   ar
     9     9     2   ar
    10    10     9    2
    11    11     8   ar
    12    12    11   ar
    13    13    12   ar
    14    13     7   ar
