@<TRIPOS>MOLECULE
7IP7_TEP_A1202
 13 14 0 0 0
SMALL
GASTEIGER

@<TRIPOS>ATOM
      1 C           1.1600   92.8300   51.3690 C.3     1  UNL1        0.1383
      2 N           1.0420   94.1900   51.8590 N.ar    1  UNL1       -0.2454
      3 C           2.0780   94.7570   52.5290 C.ar    1  UNL1        0.3350
      4 O           3.0770   94.1540   52.7140 O.2     1  UNL1       -0.2461
      5 N           1.9900   96.0180   53.0010 N.ar    1  UNL1       -0.2627
      6 C           3.1260   96.5740   53.7150 C.3     1  UNL1        0.1366
      7 C           0.8650   96.7340   52.8040 C.ar    1  UNL1        0.1716
      8 C          -0.1620   96.1800   52.1410 C.ar    1  UNL1        0.1731
      9 C          -0.0710   94.8870   51.6640 C.ar    1  UNL1        0.2850
     10 O          -0.9880   94.4120   51.0790 O.2     1  UNL1       -0.2651
     11 N          -1.1560   97.0790   52.0760 N.ar    1  UNL1       -0.2160
     12 C          -0.7290   98.1860   52.7070 C.ar    1  UNL1        0.2005
     13 N           0.5150   97.9780   53.1630 N.ar    1  UNL1       -0.2047
@<TRIPOS>BOND
     1     2     1    1
     2     3     2   ar
     3     4     3    2
     4     5     3   ar
     5     6     5    1
     6     7     5   ar
     7     8     7   ar
     8     9     8   ar
     9     9     2   ar
    10    10     9    2
    11    11     8   ar
    12    12    11   ar
    13    13     7   ar
    14    13    12   ar
