@<TRIPOS>MOLECULE
7IP8_TEP_A1202
 13 14 0 0 0
SMALL
GASTEIGER

@<TRIPOS>ATOM
      1 C           1.0590   92.8220   51.3900 C.3     1  UNL1        0.1383
      2 N           0.9720   94.1850   51.8760 N.ar    1  UNL1       -0.2454
      3 C           2.0210   94.7420   52.5400 C.ar    1  UNL1        0.3350
      4 O           3.0110   94.1190   52.7200 O.2     1  UNL1       -0.2461
      5 N           1.9410   96.0110   53.0000 N.ar    1  UNL1       -0.2627
      6 C           3.0740   96.5790   53.7040 C.3     1  UNL1        0.1366
      7 C           0.8270   96.7360   52.8030 C.ar    1  UNL1        0.1716
      8 C          -0.2060   96.1930   52.1530 C.ar    1  UNL1        0.1731
      9 C          -0.1310   94.8960   51.6890 C.ar    1  UNL1        0.2850
     10 O          -1.0540   94.4250   51.1140 O.2     1  UNL1       -0.2651
     11 N          -1.1920   97.1030   52.0930 N.ar    1  UNL1       -0.2160
     12 C          -0.7490   98.2120   52.7150 C.ar    1  UNL1        0.2005
     13 N           0.5000   97.9890   53.1610 N.ar    1  UNL1       -0.2047
@<TRIPOS>BOND
     1     2     1    1
     2     3     2   ar
     3     4     3    2
     4     5     3   ar
     5     6     5    1
     6     7     5   ar
     7     8     7   ar
     8     9     8   ar
     9     9     2   ar
    10    10     9    2
    11    11     8   ar
    12    12    11   ar
    13    13     7   ar
    14    13    12   ar
