@<TRIPOS>MOLECULE
7IPA_TEP_A2401
 13 14 0 0 0
SMALL
GASTEIGER

@<TRIPOS>ATOM
      1 C           1.1030   92.8580   51.3000 C.3     1  UNL1        0.1383
      2 N           1.0080   94.2120   51.8140 N.ar    1  UNL1       -0.2454
      3 C           2.0620   94.7700   52.4730 C.ar    1  UNL1        0.3350
      4 O           3.0610   94.1500   52.6310 O.2     1  UNL1       -0.2461
      5 N           1.9750   96.0350   52.9590 N.ar    1  UNL1       -0.2627
      6 C           3.1030   96.6210   53.6660 C.3     1  UNL1        0.1366
      7 C           0.8480   96.7470   52.7840 C.ar    1  UNL1        0.1716
      8 C          -0.1870   96.2000   52.1360 C.ar    1  UNL1        0.1731
      9 C          -0.1070   94.9140   51.6490 C.ar    1  UNL1        0.2850
     10 O          -1.0420   94.4550   51.0780 O.2     1  UNL1       -0.2651
     11 N          -1.1820   97.0970   52.0970 N.ar    1  UNL1       -0.2160
     12 C          -0.7450   98.1970   52.7280 C.ar    1  UNL1        0.2005
     13 N           0.5080   97.9890   53.1620 N.ar    1  UNL1       -0.2047
@<TRIPOS>BOND
     1     2     1    1
     2     3     2   ar
     3     4     3    2
     4     5     3   ar
     5     6     5    1
     6     7     5   ar
     7     8     7   ar
     8     9     8   ar
     9     9     2   ar
    10    10     9    2
    11    11     8   ar
    12    12    11   ar
    13    13     7   ar
    14    13    12   ar
