@<TRIPOS>MOLECULE
7IPB_TEP_A1202
 13 14 0 0 0
SMALL
GASTEIGER

@<TRIPOS>ATOM
      1 C           1.3730   92.7530   51.2230 C.3     1  UNL1        0.1383
      2 N           1.2020   94.0900   51.7680 N.ar    1  UNL1       -0.2454
      3 C           2.2060   94.6610   52.4750 C.ar    1  UNL1        0.3350
      4 O           3.2190   94.0680   52.6490 O.2     1  UNL1       -0.2461
      5 N           2.0580   95.9030   52.9840 N.ar    1  UNL1       -0.2627
      6 C           3.1490   96.4940   53.7410 C.3     1  UNL1        0.1366
      7 C           0.9120   96.5810   52.7910 C.ar    1  UNL1        0.1716
      8 C          -0.0820   96.0220   52.0930 C.ar    1  UNL1        0.1731
      9 C           0.0730   94.7520   51.5730 C.ar    1  UNL1        0.2850
     10 O          -0.8040   94.2500   50.9530 O.2     1  UNL1       -0.2651
     11 N          -1.0990   96.8930   52.0450 N.ar    1  UNL1       -0.2160
     12 C          -0.7280   97.9900   52.7160 C.ar    1  UNL1        0.2005
     13 N           0.5120   97.7990   53.1770 N.ar    1  UNL1       -0.2047
@<TRIPOS>BOND
     1     2     1    1
     2     3     2   ar
     3     4     3    2
     4     5     3   ar
     5     6     5    1
     6     7     5   ar
     7     8     7   ar
     8     9     8   ar
     9     9     2   ar
    10    10     9    2
    11    11     8   ar
    12    12    11   ar
    13    13    12   ar
    14    13     7   ar
