@<TRIPOS>MOLECULE
7IPB_TEP_A1202
 13 14 0 0 0
SMALL
GASTEIGER

@<TRIPOS>ATOM
      1 C           1.3850   92.8020   51.1170 C.3     1  UNL1        0.1383
      2 N           1.2060   94.1330   51.6740 N.ar    1  UNL1       -0.2454
      3 C           2.2050   94.7030   52.3880 C.ar    1  UNL1        0.3350
      4 O           3.2210   94.1150   52.5580 O.2     1  UNL1       -0.2461
      5 N           2.0490   95.9390   52.9090 N.ar    1  UNL1       -0.2627
      6 C           3.1360   96.5290   53.6720 C.3     1  UNL1        0.1366
      7 C           0.8990   96.6120   52.7200 C.ar    1  UNL1        0.1716
      8 C          -0.0910   96.0540   52.0160 C.ar    1  UNL1        0.1731
      9 C           0.0720   94.7900   51.4850 C.ar    1  UNL1        0.2850
     10 O          -0.8010   94.2880   50.8590 O.2     1  UNL1       -0.2651
     11 N          -1.1130   96.9190   51.9750 N.ar    1  UNL1       -0.2160
     12 C          -0.7500   98.0120   52.6570 C.ar    1  UNL1        0.2005
     13 N           0.4920   97.8240   53.1180 N.ar    1  UNL1       -0.2047
@<TRIPOS>BOND
     1     2     1    1
     2     3     2   ar
     3     4     3    2
     4     5     3   ar
     5     6     5    1
     6     7     5   ar
     7     8     7   ar
     8     9     8   ar
     9     9     2   ar
    10    10     9    2
    11    11     8   ar
    12    12    11   ar
    13    13    12   ar
    14    13     7   ar
