@<TRIPOS>MOLECULE
7IPC_TEP_A1202
 13 14 0 0 0
SMALL
GASTEIGER

@<TRIPOS>ATOM
      1 C           1.0300   92.8600   51.3960 C.3     1  UNL1        0.1383
      2 N           0.9910   94.2290   51.8830 N.ar    1  UNL1       -0.2454
      3 C           2.0750   94.7540   52.5120 C.ar    1  UNL1        0.3350
      4 O           3.0540   94.0980   52.6670 O.2     1  UNL1       -0.2461
      5 N           2.0460   96.0270   52.9650 N.ar    1  UNL1       -0.2627
      6 C           3.1970   96.5950   53.6330 C.3     1  UNL1        0.1366
      7 C           0.9540   96.7800   52.8010 C.ar    1  UNL1        0.1716
      8 C          -0.1150   96.2680   52.1820 C.ar    1  UNL1        0.1731
      9 C          -0.0960   94.9740   51.7160 C.ar    1  UNL1        0.2850
     10 O          -1.0580   94.5450   51.1710 O.2     1  UNL1       -0.2651
     11 N          -1.0640   97.2110   52.1420 N.ar    1  UNL1       -0.2160
     12 C          -0.5690   98.3020   52.7410 C.ar    1  UNL1        0.2005
     13 N           0.6800   98.0420   53.1520 N.ar    1  UNL1       -0.2047
@<TRIPOS>BOND
     1     2     1    1
     2     3     2   ar
     3     4     3    2
     4     5     3   ar
     5     6     5    1
     6     7     5   ar
     7     8     7   ar
     8     9     8   ar
     9     9     2   ar
    10    10     9    2
    11    11     8   ar
    12    12    11   ar
    13    13     7   ar
    14    13    12   ar
