@<TRIPOS>MOLECULE
7IPD_TEP_A2401
 13 14 0 0 0
SMALL
GASTEIGER

@<TRIPOS>ATOM
      1 C           1.2120   92.8770   51.3020 C.3     1  UNL1        0.1383
      2 N           1.0550   94.2280   51.8040 N.ar    1  UNL1       -0.2454
      3 C           2.0830   94.7960   52.4790 C.ar    1  UNL1        0.3350
      4 O           3.0880   94.1930   52.6500 O.2     1  UNL1       -0.2461
      5 N           1.9800   96.0520   52.9630 N.ar    1  UNL1       -0.2627
      6 C           3.1070   96.6270   53.6790 C.3     1  UNL1        0.1366
      7 C           0.8490   96.7520   52.7770 C.ar    1  UNL1        0.1716
      8 C          -0.1760   96.1980   52.1110 C.ar    1  UNL1        0.1731
      9 C          -0.0710   94.9140   51.6160 C.ar    1  UNL1        0.2850
     10 O          -0.9910   94.4430   51.0300 O.2     1  UNL1       -0.2651
     11 N          -1.1760   97.0860   52.0600 N.ar    1  UNL1       -0.2160
     12 C          -0.7540   98.1830   52.6990 C.ar    1  UNL1        0.2005
     13 N           0.4950   97.9890   53.1480 N.ar    1  UNL1       -0.2047
@<TRIPOS>BOND
     1     2     1    1
     2     3     2   ar
     3     4     3    2
     4     5     3   ar
     5     6     5    1
     6     7     5   ar
     7     8     7   ar
     8     9     8   ar
     9     9     2   ar
    10    10     9    2
    11    11     8   ar
    12    12    11   ar
    13    13     7   ar
    14    13    12   ar
