@<TRIPOS>MOLECULE
7IPE_TEP_A2401
 13 14 0 0 0
SMALL
GASTEIGER

@<TRIPOS>ATOM
      1 C           1.2680   92.7930   51.3140 C.3     1  UNL1        0.1383
      2 N           1.0980   94.1500   51.8030 N.ar    1  UNL1       -0.2454
      3 C           2.1000   94.7410   52.5020 C.ar    1  UNL1        0.3350
      4 O           3.1100   94.1520   52.7080 O.2     1  UNL1       -0.2461
      5 N           1.9550   96.0040   52.9620 N.ar    1  UNL1       -0.2627
      6 C           3.0420   96.6180   53.7050 C.3     1  UNL1        0.1366
      7 C           0.8130   96.6810   52.7340 C.ar    1  UNL1        0.1716
      8 C          -0.1760   96.1000   52.0470 C.ar    1  UNL1        0.1731
      9 C          -0.0290   94.8150   51.5760 C.ar    1  UNL1        0.2850
     10 O          -0.9160   94.3120   50.9680 O.2     1  UNL1       -0.2651
     11 N          -1.1920   96.9700   51.9540 N.ar    1  UNL1       -0.2160
     12 C          -0.8230   98.0880   52.5870 C.ar    1  UNL1        0.2005
     13 N           0.4130   97.9150   53.0700 N.ar    1  UNL1       -0.2047
@<TRIPOS>BOND
     1     2     1    1
     2     3     2   ar
     3     4     3    2
     4     5     3   ar
     5     6     5    1
     6     7     5   ar
     7     8     7   ar
     8     9     8   ar
     9     9     2   ar
    10    10     9    2
    11    11     8   ar
    12    12    11   ar
    13    13    12   ar
    14    13     7   ar
