@<TRIPOS>MOLECULE
7IPG_TEP_A2401
 13 14 0 0 0
SMALL
GASTEIGER

@<TRIPOS>ATOM
      1 C           1.2850   92.8570   51.3230 C.3     1  UNL1        0.1383
      2 N           1.1000   94.2110   51.8150 N.ar    1  UNL1       -0.2454
      3 C           2.1040   94.8150   52.5020 C.ar    1  UNL1        0.3350
      4 O           3.1210   94.2380   52.6980 O.2     1  UNL1       -0.2461
      5 N           1.9520   96.0730   52.9670 N.ar    1  UNL1       -0.2627
      6 C           3.0430   96.6910   53.7000 C.3     1  UNL1        0.1366
      7 C           0.8030   96.7380   52.7520 C.ar    1  UNL1        0.1716
      8 C          -0.1890   96.1490   52.0750 C.ar    1  UNL1        0.1731
      9 C          -0.0360   94.8640   51.5990 C.ar    1  UNL1        0.2850
     10 O          -0.9240   94.3520   50.9980 O.2     1  UNL1       -0.2651
     11 N          -1.2140   97.0100   51.9950 N.ar    1  UNL1       -0.2160
     12 C          -0.8440   98.1330   52.6260 C.ar    1  UNL1        0.2005
     13 N           0.4000   97.9660   53.0970 N.ar    1  UNL1       -0.2047
@<TRIPOS>BOND
     1     2     1    1
     2     3     2   ar
     3     4     3    2
     4     5     3   ar
     5     6     5    1
     6     7     5   ar
     7     8     7   ar
     8     9     8   ar
     9     9     2   ar
    10    10     9    2
    11    11     8   ar
    12    12    11   ar
    13    13     7   ar
    14    13    12   ar
