@<TRIPOS>MOLECULE
7IPG_TEP_A2401
 13 14 0 0 0
SMALL
GASTEIGER

@<TRIPOS>ATOM
      1 C           1.2680   92.8240   51.4130 C.3     1  UNL1        0.1383
      2 N           1.0910   94.1830   51.8940 N.ar    1  UNL1       -0.2454
      3 C           2.0980   94.7850   52.5780 C.ar    1  UNL1        0.3350
      4 O           3.1110   94.2030   52.7780 O.2     1  UNL1       -0.2461
      5 N           1.9540   96.0470   53.0330 N.ar    1  UNL1       -0.2627
      6 C           3.0480   96.6640   53.7620 C.3     1  UNL1        0.1366
      7 C           0.8090   96.7180   52.8130 C.ar    1  UNL1        0.1716
      8 C          -0.1860   96.1300   52.1390 C.ar    1  UNL1        0.1731
      9 C          -0.0410   94.8410   51.6730 C.ar    1  UNL1        0.2850
     10 O          -0.9320   94.3300   51.0750 O.2     1  UNL1       -0.2651
     11 N          -1.2060   96.9970   52.0520 N.ar    1  UNL1       -0.2160
     12 C          -0.8290   98.1230   52.6760 C.ar    1  UNL1        0.2005
     13 N           0.4130   97.9510   53.1480 N.ar    1  UNL1       -0.2047
@<TRIPOS>BOND
     1     2     1    1
     2     3     2   ar
     3     4     3    2
     4     5     3   ar
     5     6     5    1
     6     7     5   ar
     7     8     7   ar
     8     9     8   ar
     9     9     2   ar
    10    10     9    2
    11    11     8   ar
    12    12    11   ar
    13    13     7   ar
    14    13    12   ar
