@<TRIPOS>MOLECULE
7RM5_ZMA_A1201
 25 28 0 0 0
SMALL
GASTEIGER

@<TRIPOS>ATOM
      1 C          -0.5530  102.4020   55.0350 C.ar    1  UNL1       -0.0009
      2 C          -1.0280  103.6940   54.8720 C.ar    1  UNL1        0.0417
      3 C          -0.2180  104.7620   55.2460 C.ar    1  UNL1        0.1957
      4 O          -0.6770  106.0350   55.0880 O.3     1  UNL1       -0.2866
      5 C           1.0510  104.5560   55.7770 C.ar    1  UNL1        0.0417
      6 C           1.5100  103.2580   55.9340 C.ar    1  UNL1       -0.0009
      7 C           0.7120  102.1840   55.5640 C.ar    1  UNL1       -0.0202
      8 C           1.2160  100.7980   55.7420 C.3     1  UNL1        0.0498
      9 C           1.8040  100.3170   54.4240 C.3     1  UNL1        0.1200
     10 N           2.0650   98.8750   54.5290 N.pl3   1  UNL1       -0.2034
     11 C           1.2800   97.9980   53.8290 C.ar    1  UNL1        0.2415
     12 N           1.7790   96.7220   53.6760 N.ar    1  UNL1       -0.1757
     13 N           0.0690   98.5320   53.3680 N.ar    1  UNL1       -0.1769
     14 C          -0.7240   97.6770   52.6720 C.ar    1  UNL1        0.2627
     15 N          -1.9180   98.1240   52.1900 N.pl3   1  UNL1       -0.0858
     16 N          -0.3330   96.3680   52.4500 N.ar    1  UNL1       -0.1614
     17 N          -1.0030   95.3710   51.7710 N.ar    1  UNL1       -0.1374
     18 C           0.9420   95.9010   52.9670 C.ar    1  UNL1        0.2594
     19 N           1.0690   94.5940   52.6080 N.ar    1  UNL1       -0.1861
     20 C          -0.1330   94.3380   51.8900 C.ar    1  UNL1        0.2196
     21 C          -0.2990   93.0230   51.3790 C.ar    1  UNL1        0.1828
     22 C           0.6280   92.0100   51.3720 C.ar    1  UNL1        0.0440
     23 C          -0.0370   90.9050   50.7600 C.ar    1  UNL1        0.0439
     24 C          -1.3070   91.3300   50.4500 C.ar    1  UNL1        0.1798
     25 O          -1.4950   92.6310   50.8230 O.2     1  UNL1       -0.4472
@<TRIPOS>BOND
     1     2     1   ar
     2     3     2   ar
     3     4     3    1
     4     5     3   ar
     5     6     5   ar
     6     7     6   ar
     7     7     1   ar
     8     8     7    1
     9     9     8    1
    10    10     9    1
    11    11    10    1
    12    12    11   ar
    13    13    11   ar
    14    14    13   ar
    15    15    14    1
    16    16    14   ar
    17    17    16   ar
    18    18    16   ar
    19    18    12   ar
    20    19    18   ar
    21    20    19   ar
    22    20    17   ar
    23    21    20    1
    24    22    21   ar
    25    23    22   ar
    26    24    23   ar
    27    25    24   ar
    28    25    21   ar
