@<TRIPOS>MOLECULE
7RM5_ZMA_A1201
 25 28 0 0 0
SMALL
GASTEIGER

@<TRIPOS>ATOM
      1 C          -0.6120  102.3650   55.0060 C.ar    1  UNL1       -0.0009
      2 C          -1.0960  103.6540   54.8480 C.ar    1  UNL1        0.0417
      3 C          -0.2910  104.7270   55.2230 C.ar    1  UNL1        0.1957
      4 O          -0.7590  105.9970   55.0710 O.3     1  UNL1       -0.2866
      5 C           0.9800  104.5270   55.7510 C.ar    1  UNL1        0.0417
      6 C           1.4480  103.2320   55.9020 C.ar    1  UNL1       -0.0009
      7 C           0.6560  102.1530   55.5310 C.ar    1  UNL1       -0.0202
      8 C           1.1700  100.7700   55.7030 C.3     1  UNL1        0.0498
      9 C           1.7580  100.2970   54.3820 C.3     1  UNL1        0.1200
     10 N           2.0280   98.8570   54.4810 N.pl3   1  UNL1       -0.2034
     11 C           1.2460   97.9770   53.7810 C.ar    1  UNL1        0.2415
     12 N           1.7540   96.7050   53.6220 N.ar    1  UNL1       -0.1757
     13 N           0.0310   98.5040   53.3240 N.ar    1  UNL1       -0.1769
     14 C          -0.7580   97.6470   52.6280 C.ar    1  UNL1        0.2627
     15 N          -1.9560   98.0870   52.1500 N.pl3   1  UNL1       -0.0858
     16 N          -0.3590   96.3410   52.4000 N.ar    1  UNL1       -0.1614
     17 N          -1.0240   95.3420   51.7200 N.ar    1  UNL1       -0.1374
     18 C           0.9200   95.8810   52.9130 C.ar    1  UNL1        0.2594
     19 N           1.0550   94.5760   52.5490 N.ar    1  UNL1       -0.1861
     20 C          -0.1480   94.3140   51.8340 C.ar    1  UNL1        0.2196
     21 C          -0.3060   93.0000   51.3190 C.ar    1  UNL1        0.1828
     22 C           0.6270   91.9930   51.3060 C.ar    1  UNL1        0.0440
     23 C          -0.0310   90.8850   50.6920 C.ar    1  UNL1        0.0439
     24 C          -1.3050   91.3040   50.3860 C.ar    1  UNL1        0.1798
     25 O          -1.5000   92.6010   50.7650 O.2     1  UNL1       -0.4472
@<TRIPOS>BOND
     1     2     1   ar
     2     3     2   ar
     3     4     3    1
     4     5     3   ar
     5     6     5   ar
     6     7     6   ar
     7     7     1   ar
     8     8     7    1
     9     9     8    1
    10    10     9    1
    11    11    10    1
    12    12    11   ar
    13    13    11   ar
    14    14    13   ar
    15    15    14    1
    16    16    14   ar
    17    17    16   ar
    18    18    16   ar
    19    18    12   ar
    20    19    18   ar
    21    20    19   ar
    22    20    17   ar
    23    21    20    1
    24    22    21   ar
    25    23    22   ar
    26    24    23   ar
    27    25    24   ar
    28    25    21   ar
