@<TRIPOS>MOLECULE
7T32_ZMA_A1201
 25 28 0 0 0
SMALL
GASTEIGER

@<TRIPOS>ATOM
      1 C          -0.2230  102.2210   55.8380 C.ar    1  UNL1       -0.0009
      2 C          -1.1010  103.2900   55.8270 C.ar    1  UNL1        0.0417
      3 C          -0.6180  104.5830   55.9390 C.ar    1  UNL1        0.1957
      4 O          -1.5070  105.6640   55.9260 O.3     1  UNL1       -0.2866
      5 C           0.7430  104.8080   56.0610 C.ar    1  UNL1        0.0417
      6 C           1.6210  103.7390   56.0730 C.ar    1  UNL1       -0.0009
      7 C           1.1370  102.4460   55.9620 C.ar    1  UNL1       -0.0202
      8 C           2.1000  101.2660   55.9750 C.3     1  UNL1        0.0498
      9 C           2.6160  100.9320   54.5780 C.3     1  UNL1        0.1200
     10 N           2.9190   99.5180   54.4840 N.pl3   1  UNL1       -0.2034
     11 C           1.9490   98.6110   53.8960 C.ar    1  UNL1        0.2415
     12 N           2.3340   97.4070   53.4910 N.ar    1  UNL1       -0.1757
     13 N           0.6800   98.9840   53.7620 N.ar    1  UNL1       -0.1769
     14 C          -0.2000   98.1510   53.2240 C.ar    1  UNL1        0.2627
     15 N          -1.5850   98.5540   53.0760 N.pl3   1  UNL1       -0.0858
     16 N           0.1950   96.9150   52.8090 N.ar    1  UNL1       -0.1614
     17 N          -0.5070   95.8840   52.2280 N.ar    1  UNL1       -0.1374
     18 C           1.4300   96.5530   52.9400 C.ar    1  UNL1        0.2594
     19 N           1.5470   95.2650   52.4390 N.ar    1  UNL1       -0.1861
     20 C           0.3240   94.8860   52.0100 C.ar    1  UNL1        0.2196
     21 C          -0.0260   93.5390   51.3840 C.ar    1  UNL1        0.1828
     22 C           0.7900   92.4060   51.3910 C.ar    1  UNL1        0.0440
     23 C           0.0430   91.4020   50.6910 C.ar    1  UNL1        0.0439
     24 C          -1.1520   92.0260   50.3270 C.ar    1  UNL1        0.1798
     25 O          -1.1320   93.2580   50.7560 O.2     1  UNL1       -0.4472
@<TRIPOS>BOND
     1     2     1   ar
     2     3     2   ar
     3     4     3    1
     4     5     3   ar
     5     6     5   ar
     6     7     1   ar
     7     7     6   ar
     8     8     7    1
     9     9     8    1
    10    10     9    1
    11    11    10    1
    12    12    11   ar
    13    13    11   ar
    14    14    13   ar
    15    15    14    1
    16    16    14   ar
    17    17    16   ar
    18    18    16   ar
    19    18    12   ar
    20    19    18   ar
    21    20    19   ar
    22    20    17   ar
    23    21    20    1
    24    22    21   ar
    25    23    22   ar
    26    24    23   ar
    27    25    24   ar
    28    25    21   ar
