@<TRIPOS>MOLECULE
7T32_ZMA_A1201
 25 28 0 0 0
SMALL
GASTEIGER

@<TRIPOS>ATOM
      1 C          -0.1160  102.0330   55.9050 C.ar    1  UNL1       -0.0009
      2 C          -0.9860  103.1100   55.9050 C.ar    1  UNL1        0.0417
      3 C          -0.4940  104.3970   56.0470 C.ar    1  UNL1        0.1957
      4 O          -1.3750  105.4850   56.0460 O.3     1  UNL1       -0.2866
      5 C           0.8670  104.6080   56.1870 C.ar    1  UNL1        0.0417
      6 C           1.7360  103.5320   56.1870 C.ar    1  UNL1       -0.0009
      7 C           1.2430  102.2460   56.0460 C.ar    1  UNL1       -0.0202
      8 C           2.1980  101.0580   56.0450 C.3     1  UNL1        0.0498
      9 C           2.7250  100.7470   54.6470 C.3     1  UNL1        0.1200
     10 N           3.0180   99.3330   54.5290 N.pl3   1  UNL1       -0.2034
     11 C           2.0460   98.4450   53.9140 C.ar    1  UNL1        0.2415
     12 N           2.4260   97.2460   53.4910 N.ar    1  UNL1       -0.1757
     13 N           0.7820   98.8300   53.7760 N.ar    1  UNL1       -0.1769
     14 C          -0.0990   98.0150   53.2130 C.ar    1  UNL1        0.2627
     15 N          -1.4790   98.4320   53.0600 N.pl3   1  UNL1       -0.0858
     16 N           0.2900   96.7840   52.7790 N.ar    1  UNL1       -0.1614
     17 N          -0.4140   95.7690   52.1710 N.ar    1  UNL1       -0.1374
     18 C           1.5210   96.4100   52.9150 C.ar    1  UNL1        0.2594
     19 N           1.6340   95.1300   52.3900 N.ar    1  UNL1       -0.1861
     20 C           0.4120   94.7690   51.9420 C.ar    1  UNL1        0.2196
     21 C           0.0570   93.4380   51.2860 C.ar    1  UNL1        0.1828
     22 C           0.8650   92.2980   51.2800 C.ar    1  UNL1        0.0440
     23 C           0.1180   91.3140   50.5530 C.ar    1  UNL1        0.0439
     24 C          -1.0700   91.9540   50.1900 C.ar    1  UNL1        0.1798
     25 O          -1.0440   93.1770   50.6420 O.2     1  UNL1       -0.4472
@<TRIPOS>BOND
     1     2     1   ar
     2     3     2   ar
     3     4     3    1
     4     5     3   ar
     5     6     5   ar
     6     7     6   ar
     7     7     1   ar
     8     8     7    1
     9     9     8    1
    10    10     9    1
    11    11    10    1
    12    12    11   ar
    13    13    11   ar
    14    14    13   ar
    15    15    14    1
    16    16    14   ar
    17    17    16   ar
    18    18    16   ar
    19    18    12   ar
    20    19    18   ar
    21    20    19   ar
    22    20    17   ar
    23    21    20    1
    24    22    21   ar
    25    23    22   ar
    26    24    23   ar
    27    25    24   ar
    28    25    21   ar
