@<TRIPOS>MOLECULE
8A2O_TEP_A2401
 13 14 0 0 0
SMALL
GASTEIGER

@<TRIPOS>ATOM
      1 C           1.2740   92.8900   51.4630 C.3     1  UNL1        0.1383
      2 N           1.1920   94.2790   51.9410 N.ar    1  UNL1       -0.2454
      3 C           2.2850   94.7470   52.6830 C.ar    1  UNL1        0.3350
      4 O           3.2480   94.0280   52.9150 O.2     1  UNL1       -0.2461
      5 N           2.2300   96.0450   53.1390 N.ar    1  UNL1       -0.2627
      6 C           3.3450   96.5860   53.9210 C.3     1  UNL1        0.1366
      7 C           1.1270   96.8150   52.8550 C.ar    1  UNL1        0.1716
      8 C           0.0760   96.3260   52.1290 C.ar    1  UNL1        0.1731
      9 C           0.0360   95.0060   51.6150 C.ar    1  UNL1        0.2850
     10 O          -0.8740   94.5040   50.9540 O.2     1  UNL1       -0.2651
     11 N          -0.8260   97.3650   52.0470 N.ar    1  UNL1       -0.2160
     12 C          -0.2770   98.3890   52.7090 C.ar    1  UNL1        0.2005
     13 N           0.9220   98.1050   53.2290 N.ar    1  UNL1       -0.2047
@<TRIPOS>BOND
     1     2     1    1
     2     3     2   ar
     3     4     3    2
     4     5     3   ar
     5     6     5    1
     6     7     5   ar
     7     8     7   ar
     8     9     8   ar
     9     9     2   ar
    10    10     9    2
    11    11     8   ar
    12    12    11   ar
    13    13     7   ar
    14    13    12   ar
