@<TRIPOS>MOLECULE
8A2P_9Y2_A1201
 24 25 0 0 0
SMALL
GASTEIGER

@<TRIPOS>ATOM
      1 C           2.3860   97.8430   54.2270 C.ar    1  UNL1        0.1577
      2 C           2.6340   95.6440   53.2830 C.ar    1  UNL1        0.0600
      3 C           4.5270   96.7280   54.2890 C.ar    1  UNL1        0.1577
      4 C           2.0250   94.3940   52.5700 C.2     1  UNL1        0.2708
      5 C           0.0030   93.3040   51.4230 C.ar    1  UNL1        0.1861
      6 C          -1.6800   91.8930   50.4230 C.ar    1  UNL1        0.1079
      7 C           3.5870  101.0660   57.6310 C.3     1  UNL1        0.0005
      8 C           3.8680  102.1300   56.5180 C.3     1  UNL1        0.0087
      9 C           2.5120  102.5390   55.8440 C.3     1  UNL1        0.0005
     10 C           4.5270  103.3990   57.1890 C.3     1  UNL1        0.0005
     11 C           4.8600  101.5490   55.4680 C.3     1  UNL1        0.0872
     12 C           4.2330  100.3690   54.6990 C.2     1  UNL1        0.2457
     13 C           3.7320   97.8370   54.5780 C.ar    1  UNL1        0.1280
     14 C           1.8330   96.7380   53.5750 C.ar    1  UNL1        0.0357
     15 C           3.9740   95.6300   53.6430 C.ar    1  UNL1        0.0357
     16 C          -0.4720   91.1290   50.3750 C.ar    1  UNL1        0.0588
     17 F           1.5990   98.9250   54.5040 F       1  UNL1       -0.2027
     18 F           5.8280   96.7130   54.6320 F       1  UNL1       -0.2027
     19 N           4.3230   98.9890   55.2670 N.am    1  UNL1       -0.1746
     20 N           0.6660   94.4310   52.0780 N.am    1  UNL1       -0.1505
     21 N          -1.3620   93.2680   51.0820 N.ar    1  UNL1       -0.2209
     22 O           3.6760  100.5550   53.6730 O.2     1  UNL1       -0.2730
     23 O           2.6940   93.3980   52.4770 O.2     1  UNL1       -0.2679
     24 S           0.6160   91.9600   50.9980 S.2     1  UNL1       -0.0491
@<TRIPOS>BOND
     1     4     2    1
     2     8     7    1
     3     9     8    1
     4    10     8    1
     5    11     8    1
     6    12    11    1
     7    13     3   ar
     8    13     1   ar
     9    14     2   ar
    10    14     1   ar
    11    15     3   ar
    12    15     2   ar
    13    16     6   ar
    14    17     1    1
    15    18     3    1
    16    19    13    1
    17    19    12   am
    18    20     5    1
    19    20     4   am
    20    21     6   ar
    21    21     5   ar
    22    22    12    2
    23    23     4    2
    24    24    16   ar
    25    24     5   ar
