@<TRIPOS>MOLECULE
8C9W_U30_A1201
 54 57 0 0 0
SMALL
GASTEIGER

@<TRIPOS>ATOM
      1 N          -0.6880   95.4200   51.3650 N.ar    1  UNL1       -0.2146
      2 N           0.6670   96.9190   52.6330 N.ar    1  UNL1       -0.2130
      3 C          -0.1910   93.1090   51.0810 C.ar    1  UNL1        0.0047
      4 C           0.1850   94.4370   51.6150 C.ar    1  UNL1        0.0770
      5 C          -0.4200   96.6110   51.9100 C.ar    1  UNL1        0.2137
      6 C           1.5320   95.9130   52.8320 C.ar    1  UNL1        0.0981
      7 C           2.7110   96.2330   53.6430 C.ar    1  UNL1        0.1309
      8 C           5.2910   98.1350   55.2330 C.3     1  UNL1        0.0852
      9 C           4.2820   98.8400   58.7840 C.ar    1  UNL1       -0.0582
     10 C           3.3900  100.4740   57.2910 C.ar    1  UNL1        0.0725
     11 C           2.0450  102.2970   58.2750 C.3     1  UNL1       -0.0307
     12 C          -1.5410   92.7720   51.0920 C.ar    1  UNL1       -0.0522
     13 C          -1.9390   91.5040   50.7040 C.ar    1  UNL1       -0.0599
     14 C          -1.0060   90.5710   50.3010 C.ar    1  UNL1       -0.0441
     15 N           2.0530   88.9810   49.8530 N.1     1  UNL1       -0.1909
     16 C           1.3150   89.8470   50.0350 C.1     1  UNL1        0.0994
     17 O           1.4690  101.3890   56.1680 O.3     1  UNL1       -0.3830
     18 C           0.3470   90.8880   50.2790 C.ar    1  UNL1        0.0553
     19 C           4.7290   98.7980   56.4590 C.ar    1  UNL1        0.0630
     20 C           4.9100   98.2480   57.7110 C.ar    1  UNL1       -0.0385
     21 C           3.5050   99.9630   58.5830 C.ar    1  UNL1       -0.0376
     22 C           2.6060  101.7540   56.9700 C.3     1  UNL1        0.1021
     23 C           3.3520  102.8620   56.2290 C.3     1  UNL1       -0.0307
     24 C           1.3240   94.6460   52.3660 C.ar    1  UNL1       -0.0079
     25 C           0.7710   92.1800   50.6450 C.ar    1  UNL1       -0.0239
     26 C           2.2380   92.5180   50.5350 C.3     1  UNL1       -0.0379
     27 C           3.1440   97.4450   54.1070 C.ar    1  UNL1        0.0553
     28 N          -1.3240   97.5690   51.7310 N.pl3   1  UNL1       -0.3274
     29 N           4.3390   97.1930   54.6610 N.ar    1  UNL1       -0.2452
     30 N           3.9850   99.8860   56.2480 N.ar    1  UNL1       -0.2518
     31 N           4.6310   95.8820   54.6190 N.ar    1  UNL1       -0.0647
     32 N           3.6280   95.2940   54.0020 N.ar    1  UNL1       -0.1279
     33 H           6.2150   97.6120   55.4780 H       1  UNL1        0.0574
     34 H           5.5490   98.8850   54.4860 H       1  UNL1        0.0574
     35 H           4.3960   98.4240   59.7830 H       1  UNL1        0.0619
     36 H           1.6370  101.5020   58.8970 H       1  UNL1        0.0261
     37 H           1.2440  103.0140   58.0970 H       1  UNL1        0.0261
     38 H           2.8110  102.8050   58.8590 H       1  UNL1        0.0261
     39 H          -2.2790   93.5080   51.4070 H       1  UNL1        0.0624
     40 H          -2.9970   91.2460   50.7160 H       1  UNL1        0.0618
     41 H          -1.3280   89.5760   49.9990 H       1  UNL1        0.0630
     42 H           0.7300  102.0040   56.4190 H       1  UNL1        0.2107
     43 H           5.5360   97.3670   57.8540 H       1  UNL1        0.0636
     44 H           2.9920  100.4420   59.4150 H       1  UNL1        0.0636
     45 H           4.1710  103.2820   56.8120 H       1  UNL1        0.0261
     46 H           2.7090  103.7020   55.9680 H       1  UNL1        0.0261
     47 H           3.7940  102.5220   55.2940 H       1  UNL1        0.0261
     48 H           2.0130   93.8270   52.5670 H       1  UNL1        0.0661
     49 H           2.4250   93.5610   50.2820 H       1  UNL1        0.0278
     50 H           2.7600   91.9410   49.7720 H       1  UNL1        0.0278
     51 H           2.7930   92.3440   51.4560 H       1  UNL1        0.0278
     52 H           2.6710   98.4260   54.0650 H       1  UNL1        0.0849
     53 H          -1.1940   98.4940   52.1280 H       1  UNL1        0.1452
     54 H          -2.1680   97.4010   51.1950 H       1  UNL1        0.1452
@<TRIPOS>BOND
     1     4     3    1
     2     4     1   ar
     3     5     2   ar
     4     5     1   ar
     5     6     2   ar
     6     7     6    1
     7    12     3   ar
     8    13    12   ar
     9    14    13   ar
    10    16    15    3
    11    18    16    1
    12    18    14   ar
    13    19     8    1
    14    20    19   ar
    15    20     9   ar
    16    21    10   ar
    17    21     9   ar
    18    22    17    1
    19    22    11    1
    20    22    10    1
    21    23    22    1
    22    24     6   ar
    23    24     4   ar
    24    25    18   ar
    25    25     3   ar
    26    26    25    1
    27    27     7   ar
    28    28     5    1
    29    29    27   ar
    30    29     8    1
    31    30    19   ar
    32    30    10   ar
    33    31    29   ar
    34    32     7   ar
    35    32    31   ar
    36     8    33    1
    37    34     8    1
    38    35     9    1
    39    11    36    1
    40    37    11    1
    41    38    11    1
    42    39    12    1
    43    40    13    1
    44    41    14    1
    45    42    17    1
    46    43    20    1
    47    44    21    1
    48    23    45    1
    49    46    23    1
    50    47    23    1
    51    48    24    1
    52    26    49    1
    53    50    26    1
    54    51    26    1
    55    52    27    1
    56    53    28    1
    57    54    28    1
