@<TRIPOS>MOLECULE
8C9W_U30_A1201
 54 57 0 0 0
SMALL
GASTEIGER

@<TRIPOS>ATOM
      1 N          -0.7020   95.2840   51.5480 N.ar    1  UNL1       -0.2146
      2 N           0.6750   96.7920   52.7820 N.ar    1  UNL1       -0.2130
      3 C          -0.2420   92.9600   51.3200 C.ar    1  UNL1        0.0047
      4 C           0.1550   94.2950   51.8230 C.ar    1  UNL1        0.0770
      5 C          -0.4160   96.4840   52.0650 C.ar    1  UNL1        0.2137
      6 C           1.5230   95.7780   53.0070 C.ar    1  UNL1        0.0981
      7 C           2.7050   96.0980   53.8130 C.ar    1  UNL1        0.1309
      8 C           5.3130   97.9960   55.3610 C.3     1  UNL1        0.0852
      9 C           4.3090   98.8020   58.8930 C.ar    1  UNL1       -0.0582
     10 C           3.4460  100.4140   57.3590 C.ar    1  UNL1        0.0725
     11 C           2.1290  102.2810   58.2970 C.3     1  UNL1       -0.0307
     12 C          -1.5970   92.6450   51.3360 C.ar    1  UNL1       -0.0522
     13 C          -2.0150   91.3750   50.9770 C.ar    1  UNL1       -0.0599
     14 C          -1.0960   90.4170   50.5990 C.ar    1  UNL1       -0.0441
     15 N           1.9380   88.7690   50.1950 N.1     1  UNL1       -0.1909
     16 C           1.2130   89.6510   50.3550 C.1     1  UNL1        0.0994
     17 O           1.5410  101.3320   56.2110 O.3     1  UNL1       -0.3830
     18 C           0.2620   90.7130   50.5720 C.ar    1  UNL1        0.0553
     19 C           4.7600   98.6970   56.5710 C.ar    1  UNL1        0.0630
     20 C           4.9300   98.1740   57.8360 C.ar    1  UNL1       -0.0385
     21 C           3.5510   99.9320   58.6630 C.ar    1  UNL1       -0.0376
     22 C           2.6830  101.6980   57.0060 C.3     1  UNL1        0.1021
     23 C           3.4480  102.7760   56.2410 C.3     1  UNL1       -0.0307
     24 C           1.2950   94.5030   52.5700 C.ar    1  UNL1       -0.0079
     25 C           0.7060   92.0060   50.9080 C.ar    1  UNL1       -0.0239
     26 C           2.1790   92.3180   50.7930 C.3     1  UNL1       -0.0379
     27 C           3.1570   97.3140   54.2480 C.ar    1  UNL1        0.0553
     28 N          -1.3040   97.4510   51.8610 N.pl3   1  UNL1       -0.3274
     29 N           4.3460   97.0560   54.8110 N.ar    1  UNL1       -0.2452
     30 N           4.0330   99.7920   56.3320 N.ar    1  UNL1       -0.2518
     31 N           4.6180   95.7400   54.8010 N.ar    1  UNL1       -0.0647
     32 N           3.6070   95.1540   54.1960 N.ar    1  UNL1       -0.1279
     33 H           6.2280   97.4640   55.6210 H       1  UNL1        0.0574
     34 H           5.5840   98.7240   54.5980 H       1  UNL1        0.0574
     35 H           4.4150   98.4080   59.9020 H       1  UNL1        0.0619
     36 H           1.7070  101.5070   58.9370 H       1  UNL1        0.0261
     37 H           1.3400  103.0060   58.1000 H       1  UNL1        0.0261
     38 H           2.9020  102.7900   58.8700 H       1  UNL1        0.0261
     39 H          -2.3230   93.4000   51.6320 H       1  UNL1        0.0624
     40 H          -3.0760   91.1340   50.9940 H       1  UNL1        0.0618
     41 H          -1.4330   89.4210   50.3200 H       1  UNL1        0.0630
     42 H           0.8120  101.9640   56.4460 H       1  UNL1        0.2107
     43 H           5.5410   97.2880   58.0010 H       1  UNL1        0.0636
     44 H           3.0440  100.4390   59.4830 H       1  UNL1        0.0636
     45 H           4.2720  103.1960   56.8150 H       1  UNL1        0.0261
     46 H           2.8190  103.6190   55.9580 H       1  UNL1        0.0261
     47 H           3.8860  102.4060   55.3150 H       1  UNL1        0.0261
     48 H           1.9700   93.6780   52.7930 H       1  UNL1        0.0661
     49 H           2.3830   93.3510   50.5150 H       1  UNL1        0.0278
     50 H           2.6920   91.7140   50.0460 H       1  UNL1        0.0278
     51 H           2.7290   92.1570   51.7200 H       1  UNL1        0.0278
     52 H           2.7000   98.3010   54.1820 H       1  UNL1        0.0849
     53 H          -1.1610   98.3840   52.2360 H       1  UNL1        0.1452
     54 H          -2.1500   97.2840   51.3270 H       1  UNL1        0.1452
@<TRIPOS>BOND
     1     4     3    1
     2     4     1   ar
     3     5     2   ar
     4     5     1   ar
     5     6     2   ar
     6     7     6    1
     7    12     3   ar
     8    13    12   ar
     9    14    13   ar
    10    16    15    3
    11    18    16    1
    12    18    14   ar
    13    19     8    1
    14    20    19   ar
    15    20     9   ar
    16    21    10   ar
    17    21     9   ar
    18    22    17    1
    19    22    11    1
    20    22    10    1
    21    23    22    1
    22    24     6   ar
    23    24     4   ar
    24    25    18   ar
    25    25     3   ar
    26    26    25    1
    27    27     7   ar
    28    28     5    1
    29    29    27   ar
    30    29     8    1
    31    30    19   ar
    32    30    10   ar
    33    31    29   ar
    34    32     7   ar
    35    32    31   ar
    36     8    33    1
    37    34     8    1
    38    35     9    1
    39    11    36    1
    40    37    11    1
    41    38    11    1
    42    39    12    1
    43    40    13    1
    44    41    14    1
    45    42    17    1
    46    43    20    1
    47    44    21    1
    48    23    45    1
    49    46    23    1
    50    47    23    1
    51    48    24    1
    52    26    49    1
    53    50    26    1
    54    51    26    1
    55    52    27    1
    56    53    28    1
    57    54    28    1
