@<TRIPOS>MOLECULE
8CU6_LJX_A1208
 28 31 0 0 0
SMALL
GASTEIGER

@<TRIPOS>ATOM
      1 C          -0.9450   90.7710   50.4310 C.ar    1  UNL1        0.0355
      2 C           2.5980   98.9670   54.3500 C.1     1  UNL1       -0.0256
      3 C           3.3510   99.6810   54.9460 C.1     1  UNL1       -0.0835
      4 C           4.2590  100.5480   55.7020 C.3     1  UNL1        0.0765
      5 C           3.4750  101.3170   56.7670 C.3     1  UNL1        0.0140
      6 C           2.6200  100.3660   57.6070 C.3     1  UNL1        0.0010
      7 C           1.1890  100.2750   57.0780 C.3     1  UNL1        0.0000
      8 C           1.7080   98.1040   53.6490 C.ar    1  UNL1        0.2091
      9 C           0.3310   90.8850   50.0270 C.ar    1  UNL1        0.0076
     10 C           1.3310   95.9550   52.7380 C.ar    1  UNL1        0.1696
     11 C           0.1050   96.3560   52.3190 C.ar    1  UNL1        0.1517
     12 C          -0.3300   97.6610   52.5760 C.ar    1  UNL1        0.1924
     13 C           0.9540   92.1060   50.4190 C.ar    1  UNL1        0.0100
     14 C           0.3840   94.2590   51.7170 C.ar    1  UNL1        0.1528
     15 C           0.1130   92.9260   51.1400 C.ar    1  UNL1        0.0637
     16 N           0.4830   98.5240   53.2410 N.ar    1  UNL1       -0.1995
     17 N           2.1190   96.8400   53.4000 N.ar    1  UNL1       -0.2003
     18 S          -1.4060   92.1560   51.2990 S.2     1  UNL1       -0.0834
     19 C           3.9260   94.5780   53.1300 C.3     1  UNL1        0.2337
     20 C           3.1550   93.1290   54.7880 C.3     1  UNL1        0.1799
     21 C           3.6580   94.5520   54.6250 C.3     1  UNL1        0.2160
     22 C           2.7030   93.8110   52.6140 C.3     1  UNL1        0.2409
     23 N           1.5150   94.6550   52.3680 N.ar    1  UNL1       -0.2714
     24 N          -0.4820   95.2900   51.6820 N.ar    1  UNL1       -0.2217
     25 N          -1.5380   98.0610   52.1650 N.pl3   1  UNL1       -0.1054
     26 O           5.1150   93.8380   52.8970 O.3     1  UNL1       -0.2155
     27 O           2.3830   92.8400   53.6170 O.3     1  UNL1       -0.3306
     28 O           4.8410   94.8240   55.3580 O.3     1  UNL1       -0.2175
@<TRIPOS>BOND
     1     3     2    3
     2     4     3    1
     3     5     4    1
     4     6     5    1
     5     7     6    1
     6     8     2    1
     7     9     1   ar
     8    11    10   ar
     9    12    11   ar
    10    13     9   ar
    11    15    13   ar
    12    15    14    1
    13    16    12   ar
    14    16     8   ar
    15    17    10   ar
    16    17     8   ar
    17    18     1   ar
    18    18    15   ar
    19    21    19    1
    20    21    20    1
    21    22    19    1
    22    22    23    1
    23    23    14   ar
    24    23    10   ar
    25    24    14   ar
    26    24    11   ar
    27    25    12    1
    28    19    26    1
    29    27    22    1
    30    27    20    1
    31    21    28    1
