@<TRIPOS>MOLECULE
8DU3_TKO_A3001
 17 19 0 0 0
SMALL
GASTEIGER

@<TRIPOS>ATOM
      1 C          -0.7320   97.2390   52.0860 C.ar    1  UNL1        0.2567
      2 C           0.0850   94.9940   51.8370 C.ar    1  UNL1        0.1201
      3 C          -0.1830   93.5870   51.2860 C.ar    1  UNL1        0.1631
      4 C           0.6500   92.5720   50.8550 C.ar    1  UNL1        0.0423
      5 C          -0.1590   91.4610   50.4390 C.ar    1  UNL1        0.0438
      6 C          -1.4440   91.8610   50.6400 C.ar    1  UNL1        0.1797
      7 C           1.2920   95.3770   52.5750 C.ar    1  UNL1        0.0390
      8 C           2.3730   94.5070   52.8710 C.ar    1  UNL1        0.0098
      9 C           3.4690   94.9550   53.5660 C.ar    1  UNL1        0.0347
     10 C           3.5800   96.2840   54.0210 C.ar    1  UNL1        0.0082
     11 C           2.5460   97.1600   53.7500 C.ar    1  UNL1        0.0198
     12 C           1.3790   96.7330   53.0220 C.ar    1  UNL1        0.0858
     13 N          -1.8060   98.1360   51.8070 N.pl3   1  UNL1       -0.0860
     14 N          -0.8770   95.8900   51.6080 N.ar    1  UNL1       -0.2080
     15 N           0.3550   97.6600   52.7720 N.ar    1  UNL1       -0.2111
     16 O          -1.5010   93.1400   51.1510 O.2     1  UNL1       -0.4489
     17 BR          4.9420   93.7270   53.9630 Br      1  UNL1       -0.0490
@<TRIPOS>BOND
     1     3     2    1
     2     4     3   ar
     3     5     4   ar
     4     6     5   ar
     5     7     2   ar
     6     8     7   ar
     7     9     8   ar
     8    10     9   ar
     9    11    10   ar
    10    12    11   ar
    11    12     7   ar
    12    13     1    1
    13    14     2   ar
    14    14     1   ar
    15    15    12   ar
    16    15     1   ar
    17    16     6   ar
    18    16     3   ar
    19    17     9    1
