@<TRIPOS>MOLECULE
8FYN_ZMA_A2401
 40 43 0 0 0
SMALL
GASTEIGER

@<TRIPOS>ATOM
      1 C           1.3120  103.2870   55.9940 C.ar    1  UNL1       -0.0551
      2 C           0.8570  104.5920   55.9050 C.ar    1  UNL1       -0.0199
      3 C          -0.3510  104.8620   55.2810 C.ar    1  UNL1        0.1169
      4 O          -0.8140  106.1840   55.1920 O.3     1  UNL1       -0.5068
      5 C          -1.1020  103.8290   54.7480 C.ar    1  UNL1       -0.0199
      6 C          -0.6470  102.5250   54.8370 C.ar    1  UNL1       -0.0551
      7 C           0.5590  102.2560   55.4630 C.ar    1  UNL1       -0.0457
      8 C           1.0660  100.8190   55.5590 C.3     1  UNL1       -0.0120
      9 C           1.8970  100.5140   54.3150 C.3     1  UNL1        0.0158
     10 N           2.1790   99.0950   54.2610 N.pl3   1  UNL1       -0.3130
     11 C           1.2740   98.2040   53.5570 C.ar    1  UNL1        0.2213
     12 N           1.6000   96.9340   53.3870 N.ar    1  UNL1       -0.1771
     13 N           0.1200   98.6670   53.0940 N.ar    1  UNL1       -0.1812
     14 C          -0.7080   97.8570   52.4570 C.ar    1  UNL1        0.2198
     15 N          -1.9700   98.3530   51.9400 N.pl3   1  UNL1       -0.3273
     16 N          -0.3760   96.5710   52.2820 N.ar    1  UNL1       -0.1644
     17 N          -1.0330   95.5410   51.6720 N.ar    1  UNL1       -0.1375
     18 C           0.7600   96.1130   52.7390 C.ar    1  UNL1        0.2593
     19 N           0.8390   94.7940   52.4290 N.ar    1  UNL1       -0.1861
     20 C          -0.2770   94.4690   51.7690 C.ar    1  UNL1        0.2189
     21 C          -0.4980   93.1810   51.3230 C.ar    1  UNL1        0.1734
     22 C           0.4310   92.1690   51.2510 C.ar    1  UNL1       -0.0127
     23 C          -0.1970   91.0670   50.7660 C.ar    1  UNL1       -0.0232
     24 C          -1.5140   91.3940   50.5400 C.ar    1  UNL1        0.0927
     25 O          -1.6940   92.6990   50.8880 O.2     1  UNL1       -0.4597
     26 H           2.1230  103.1040   56.4120 H       1  UNL1        0.0621
     27 H           1.3610  105.2860   56.2640 H       1  UNL1        0.0654
     28 H          -1.2620  106.2790   54.4760 H       1  UNL1        0.2921
     29 H          -1.9130  104.0120   54.3300 H       1  UNL1        0.0654
     30 H          -1.1520  101.8310   54.4790 H       1  UNL1        0.0621
     31 H           0.3130  100.2100   55.6050 H       1  UNL1        0.0328
     32 H           1.6160  100.7190   56.3520 H       1  UNL1        0.0328
     33 H           2.7310  101.0070   54.3570 H       1  UNL1        0.0465
     34 H           1.4060  100.7820   53.5230 H       1  UNL1        0.0465
     35 H           2.8810   98.7810   54.6450 H       1  UNL1        0.1489
     36 H          -2.0330   99.1660   51.6660 H       1  UNL1        0.1452
     37 H          -2.6550   97.8340   51.9070 H       1  UNL1        0.1452
     38 H           1.3280   92.2290   51.4900 H       1  UNL1        0.0656
     39 H           0.1940   90.2370   50.6120 H       1  UNL1        0.0649
     40 H          -2.1680   90.8250   50.2080 H       1  UNL1        0.1029
@<TRIPOS>BOND
     1     2     1   ar
     2     3     2   ar
     3     4     3    1
     4     5     3   ar
     5     6     5   ar
     6     7     6   ar
     7     7     1   ar
     8     8     7    1
     9     9     8    1
    10    10     9    1
    11    11    10    1
    12    12    11   ar
    13    13    11   ar
    14    14    13   ar
    15    15    14    1
    16    16    14   ar
    17    17    16   ar
    18    18    16   ar
    19    18    12   ar
    20    19    18   ar
    21    20    19   ar
    22    20    17   ar
    23    21    20    1
    24    22    21   ar
    25    23    22   ar
    26    24    23   ar
    27    25    24   ar
    28    25    21   ar
    29    26     1    1
    30    27     2    1
    31    28     4    1
    32    29     5    1
    33    30     6    1
    34     8    31    1
    35    32     8    1
    36     9    33    1
    37    34     9    1
    38    35    10    1
    39    36    15    1
    40    37    15    1
    41    38    22    1
    42    39    23    1
    43    40    24    1
