@<TRIPOS>MOLECULE
8GNG_JQ9_X402
 28 30 0 0 0
SMALL
GASTEIGER

@<TRIPOS>ATOM
      1 N           1.0890   94.0690   52.0940 N.ar    1  UNL1       -0.2475
      2 C           1.1350   92.3820   50.1740 C.3     1  UNL1        0.0267
      3 O           3.0690   92.9520   52.5170 O.2     1  UNL1       -0.2461
      4 C           2.4230   94.0190   52.6240 C.ar    1  UNL1        0.3349
      5 N           2.9520   95.2120   53.2520 N.ar    1  UNL1       -0.2648
      6 C           4.3150   95.2980   53.8710 C.3     1  UNL1        0.1121
      7 C           5.5290   95.1050   52.9500 C.3     1  UNL1        0.0267
      8 C           2.1320   96.3310   53.3220 C.ar    1  UNL1        0.1695
      9 N           2.4770   97.5230   53.8930 N.ar    1  UNL1       -0.2094
     10 C           1.4060   98.2860   53.7100 C.ar    1  UNL1        0.1457
     11 N           0.3750   97.6190   53.0410 N.ar    1  UNL1       -0.3045
     12 C          -0.9440   98.1320   52.6740 C.3     1  UNL1        0.1321
     13 C           0.8550   96.3430   52.7910 C.ar    1  UNL1        0.1527
     14 C           0.2450   95.2070   52.1460 C.ar    1  UNL1        0.2831
     15 O          -0.9060   95.2490   51.6840 O.2     1  UNL1       -0.2652
     16 C           0.5270   92.8480   51.4800 C.3     1  UNL1        0.1137
     17 C           1.2250   99.6220   54.0730 C.2     1  UNL1        0.0371
     18 C           1.8960  100.1950   55.0710 C.2     1  UNL1        0.0032
     19 C           1.5800  101.5950   55.3080 C.ar    1  UNL1        0.0033
     20 C           0.3040  102.1290   54.9890 C.ar    1  UNL1        0.0033
     21 C           0.0010  103.4740   55.2010 C.ar    1  UNL1        0.0400
     22 C           0.9620  104.3310   55.7340 C.ar    1  UNL1        0.1724
     23 O           0.6650  105.6720   55.9540 O.3     1  UNL1       -0.4684
     24 C          -0.6540  106.1030   56.3200 C.3     1  UNL1        0.2526
     25 C           2.2740  103.7920   56.0430 C.ar    1  UNL1        0.1724
     26 C           2.5640  102.4270   55.8280 C.ar    1  UNL1        0.0400
     27 O           3.2250  104.6570   56.5470 O.3     1  UNL1       -0.4684
     28 C           4.5410  104.1960   56.9110 C.3     1  UNL1        0.2526
@<TRIPOS>BOND
     1     4     3    2
     2     4     1   ar
     3     5     4   ar
     4     6     5    1
     5     7     6    1
     6     8     5   ar
     7     9     8   ar
     8    10     9   ar
     9    11    10   ar
    10    12    11    1
    11    13    11   ar
    12    13     8   ar
    13    14    13   ar
    14    14     1   ar
    15    15    14    2
    16    16     2    1
    17    16     1    1
    18    17    10    1
    19    18    17    2
    20    19    18    1
    21    20    19   ar
    22    21    20   ar
    23    22    21   ar
    24    23    22    1
    25    24    23    1
    26    25    22   ar
    27    26    19   ar
    28    26    25   ar
    29    27    25    1
    30    28    27    1
