@<TRIPOS>MOLECULE
8JWY_VBF_A1201
 34 37 0 0 0
SMALL
GASTEIGER

@<TRIPOS>ATOM
      1 C          -0.0390   94.6350   51.7150 C.ar    1  UNL1        0.0855
      2 C           2.3210   96.7290   53.5890 C.ar    1  UNL1        0.0240
      3 C           3.6860   98.4280   54.5510 C.ar    1  UNL1        0.0787
      4 C           5.6280   97.9420   55.8700 C.3     1  UNL1        0.1548
      5 C           4.8740   97.9150   59.6070 C.ar    1  UNL1        0.0026
      6 C           4.1070   99.0700   59.6880 C.ar    1  UNL1        0.0172
      7 C           3.8690   99.8040   58.5400 C.ar    1  UNL1        0.0861
      8 C           1.7280  100.8050   59.3420 C.3     1  UNL1        0.0391
      9 C           4.2680   96.2110   54.8960 C.ar    1  UNL1        0.2613
     10 C           2.1110   92.5010   50.9420 C.3     1  UNL1        0.0318
     11 C           0.5910   92.3190   50.9760 C.ar    1  UNL1       -0.0108
     12 C           0.1370   91.0610   50.6170 C.ar    1  UNL1        0.0645
     13 C           1.1540   89.9850   50.2350 C.1     1  UNL1        0.1001
     14 C          -1.2160   90.7640   50.6030 C.ar    1  UNL1        0.0100
     15 C          -2.1310   91.7410   50.9530 C.ar    1  UNL1        0.0007
     16 C          -1.6850   93.0010   51.3100 C.ar    1  UNL1        0.0012
     17 C          -0.3340   93.3170   51.3340 C.ar    1  UNL1        0.0145
     18 C           1.0460   95.0050   52.5050 C.ar    1  UNL1        0.0384
     19 C           1.2260   96.3410   52.8240 C.ar    1  UNL1        0.0860
     20 C           2.5800   98.0750   53.7940 C.ar    1  UNL1        0.0204
     21 C           5.0970   98.3320   57.2550 C.ar    1  UNL1        0.0816
     22 C           5.3680   97.5490   58.3600 C.ar    1  UNL1        0.0167
     23 C           3.0270  101.0800   58.5910 C.3     1  UNL1        0.1614
     24 C           3.8070  102.1920   59.2900 C.3     1  UNL1        0.0391
     25 C           3.1770   95.7850   54.1410 C.ar    1  UNL1        0.0623
     26 C          -0.6830   96.8620   51.6580 C.ar    1  UNL1        0.2566
     27 N           1.9140   89.1920   49.9520 N.1     1  UNL1       -0.1908
     28 N           4.4840   97.5110   55.0720 N.ar    1  UNL1       -0.2884
     29 N           4.3610   99.4230   57.3770 N.ar    1  UNL1       -0.2496
     30 N           0.3520   97.2380   52.3920 N.ar    1  UNL1       -0.2111
     31 N          -1.6290   97.8620   51.1980 N.pl3   1  UNL1       -0.0860
     32 N          -0.8750   95.5920   51.3340 N.ar    1  UNL1       -0.2111
     33 O           2.7320  101.4650   57.2780 O.3     1  UNL1       -0.2196
     34 O           5.0090   95.4200   55.3800 O.2     1  UNL1       -0.2670
@<TRIPOS>BOND
     1     6     5   ar
     2     7     6   ar
     3    11    10    1
     4    12    11   ar
     5    13    12    1
     6    14    12   ar
     7    15    14   ar
     8    16    15   ar
     9    17    11   ar
    10    17    16   ar
    11    17     1    1
    12    18     1   ar
    13    19    18   ar
    14    19     2    1
    15    20     2   ar
    16    20     3   ar
    17    21     4    1
    18    22     5   ar
    19    22    21   ar
    20    23     8    1
    21    23     7    1
    22    24    23    1
    23    25     2   ar
    24    25     9   ar
    25    27    13    3
    26    28     9   ar
    27    28     3   ar
    28    28     4    1
    29    29    21   ar
    30    29     7   ar
    31    30    26   ar
    32    30    19   ar
    33    31    26    1
    34    32    26   ar
    35    32     1   ar
    36    33    23    1
    37    34     9    2
