@<TRIPOS>MOLECULE
8JWZ_U30_A520
 32 35 0 0 0
SMALL
GASTEIGER

@<TRIPOS>ATOM
      1 N          -0.5980   95.6240   51.6160 N.ar    1  UNL1       -0.2111
      2 N           0.7580   97.0880   52.7800 N.ar    1  UNL1       -0.2094
      3 C          -0.1030   93.2310   51.2330 C.ar    1  UNL1        0.0145
      4 C           0.2440   94.6200   51.7920 C.ar    1  UNL1        0.0855
      5 C          -0.3440   96.8300   52.0950 C.ar    1  UNL1        0.2566
      6 C           1.6420   96.1340   53.0110 C.ar    1  UNL1        0.1067
      7 C           2.9380   96.3640   53.7890 C.ar    1  UNL1        0.1409
      8 C           5.4820   98.2560   55.4820 C.3     1  UNL1        0.1745
      9 C           4.4700   98.3690   59.1410 C.ar    1  UNL1        0.0026
     10 C           3.5930  100.2440   57.9420 C.ar    1  UNL1        0.0861
     11 C           3.5260  102.6330   58.6550 C.3     1  UNL1        0.0391
     12 C          -1.4470   92.8910   51.2370 C.ar    1  UNL1        0.0012
     13 C          -1.8820   91.6660   50.7620 C.ar    1  UNL1        0.0007
     14 C          -0.9670   90.7550   50.2690 C.ar    1  UNL1        0.0100
     15 N           2.1830   89.3660   49.3230 N.1     1  UNL1       -0.1908
     16 C           1.4080   90.0900   49.7200 C.1     1  UNL1        0.1001
     17 O           2.6090  101.9270   56.5570 O.3     1  UNL1       -0.2196
     18 C           0.3770   91.0800   50.2570 C.ar    1  UNL1        0.0645
     19 C           4.8640   98.6930   56.8060 C.ar    1  UNL1        0.0833
     20 C           5.0470   97.9390   57.9520 C.ar    1  UNL1        0.0167
     21 C           3.7290   99.5440   59.1290 C.ar    1  UNL1        0.0172
     22 C           2.7850  101.5380   57.8920 C.3     1  UNL1        0.1614
     23 C           1.4270  101.2860   58.5350 C.3     1  UNL1        0.0391
     24 C           1.3960   94.8650   52.5280 C.ar    1  UNL1        0.0400
     25 C           0.8200   92.3030   50.7300 C.ar    1  UNL1       -0.0108
     26 C           2.3320   92.5290   50.6520 C.3     1  UNL1        0.0318
     27 C           3.4620   97.5690   54.2440 C.ar    1  UNL1        0.1195
     28 N          -1.2990   97.8970   51.8580 N.pl3   1  UNL1       -0.0860
     29 N           4.5980   97.2930   54.8480 N.ar    1  UNL1       -0.2241
     30 N           4.1560   99.8010   56.8390 N.ar    1  UNL1       -0.2496
     31 N           4.8300   95.9640   54.7980 N.ar    1  UNL1       -0.0634
     32 N           3.7860   95.3930   54.1290 N.ar    1  UNL1       -0.1272
@<TRIPOS>BOND
     1     4     3    1
     2     4     1   ar
     3     5     2   ar
     4     5     1   ar
     5     6     2   ar
     6     7     6    1
     7    12     3   ar
     8    13    12   ar
     9    14    13   ar
    10    16    15    3
    11    18    16    1
    12    18    14   ar
    13    19     8    1
    14    20    19   ar
    15    20     9   ar
    16    21    10   ar
    17    21     9   ar
    18    22    17    1
    19    22    11    1
    20    22    10    1
    21    23    22    1
    22    24     6   ar
    23    24     4   ar
    24    25    18   ar
    25    25     3   ar
    26    26    25    1
    27    27     7   ar
    28    28     5    1
    29    29    27   ar
    30    29     8    1
    31    30    19   ar
    32    30    10   ar
    33    31    29   ar
    34    32     7   ar
    35    32    31   ar
