@<TRIPOS>MOLECULE
8JWZ_U30_A520
 32 35 0 0 0
SMALL
GASTEIGER

@<TRIPOS>ATOM
      1 N          -0.6150   95.4700   51.7970 N.ar    1  UNL1       -0.2111
      2 N           0.7600   96.9410   52.9300 N.ar    1  UNL1       -0.2094
      3 C          -0.1520   93.0640   51.4650 C.ar    1  UNL1        0.0145
      4 C           0.2140   94.4600   51.9940 C.ar    1  UNL1        0.0855
      5 C          -0.3450   96.6830   52.2500 C.ar    1  UNL1        0.2566
      6 C           1.6310   95.9810   53.1820 C.ar    1  UNL1        0.1067
      7 C           2.9300   96.2100   53.9550 C.ar    1  UNL1        0.1409
      8 C           5.4980   98.1040   55.6080 C.3     1  UNL1        0.1745
      9 C           4.4870   98.3090   59.2640 C.ar    1  UNL1        0.0026
     10 C           3.6350  100.1690   58.0250 C.ar    1  UNL1        0.0861
     11 C           3.5990  102.5740   58.6860 C.3     1  UNL1        0.0391
     12 C          -1.5000   92.7410   51.4770 C.ar    1  UNL1        0.0012
     13 C          -1.9510   91.5120   51.0270 C.ar    1  UNL1        0.0007
     14 C          -1.0480   90.5790   50.5540 C.ar    1  UNL1        0.0100
     15 N           2.0840   89.1290   49.6400 N.1     1  UNL1       -0.1908
     16 C           1.3180   89.8710   50.0210 C.1     1  UNL1        0.1001
     17 O           2.6740  101.8350   56.6030 O.3     1  UNL1       -0.2196
     18 C           0.3010   90.8860   50.5360 C.ar    1  UNL1        0.0645
     19 C           4.8860   98.5780   56.9230 C.ar    1  UNL1        0.0833
     20 C           5.0590   97.8460   58.0850 C.ar    1  UNL1        0.0167
     21 C           3.7620   99.4930   59.2260 C.ar    1  UNL1        0.0172
     22 C           2.8450  101.4730   57.9460 C.3     1  UNL1        0.1614
     23 C           1.4840  101.2530   58.5940 C.3     1  UNL1        0.0391
     24 C           1.3690   94.7050   52.7260 C.ar    1  UNL1        0.0400
     25 C           0.7600   92.1120   50.9830 C.ar    1  UNL1       -0.0108
     26 C           2.2740   92.3170   50.9010 C.3     1  UNL1        0.0318
     27 C           3.4700   97.4180   54.3850 C.ar    1  UNL1        0.1195
     28 N          -1.2850   97.7570   51.9900 N.pl3   1  UNL1       -0.0860
     29 N           4.6020   97.1400   54.9950 N.ar    1  UNL1       -0.2241
     30 N           4.1930   99.6950   56.9310 N.ar    1  UNL1       -0.2496
     31 N           4.8160   95.8070   54.9740 N.ar    1  UNL1       -0.0634
     32 N           3.7660   95.2360   54.3160 N.ar    1  UNL1       -0.1272
@<TRIPOS>BOND
     1     4     3    1
     2     4     1   ar
     3     5     2   ar
     4     5     1   ar
     5     6     2   ar
     6     7     6    1
     7    12     3   ar
     8    13    12   ar
     9    14    13   ar
    10    16    15    3
    11    18    16    1
    12    18    14   ar
    13    19     8    1
    14    20    19   ar
    15    20     9   ar
    16    21    10   ar
    17    21     9   ar
    18    22    17    1
    19    22    11    1
    20    22    10    1
    21    23    22    1
    22    24     6   ar
    23    24     4   ar
    24    25    18   ar
    25    25     3   ar
    26    26    25    1
    27    27     7   ar
    28    28     5    1
    29    29    27   ar
    30    29     8    1
    31    30    19   ar
    32    30    10   ar
    33    31    29   ar
    34    32     7   ar
    35    32    31   ar
