@<TRIPOS>MOLECULE
8RVW_A1H3H_A1205
 27 29 0 0 0
SMALL
GASTEIGER

@<TRIPOS>ATOM
      1 N           2.7310   95.3810   53.1830 N.ar    1  UNL1       -0.2648
      2 N           1.8810   97.5830   53.8430 N.ar    1  UNL1       -0.2094
      3 C           5.1320   95.3940   53.7700 C.3     1  UNL1        0.0267
      4 C           1.7890   96.3990   53.1690 C.ar    1  UNL1        0.1695
      5 C           0.6690   96.3140   52.4190 C.ar    1  UNL1        0.1527
      6 C           0.7760   98.2390   53.4790 C.ar    1  UNL1        0.1457
      7 C           1.5430  103.8000   56.1070 C.ar    1  UNL1        0.2293
      8 C          -1.0660  106.3110   55.6270 C.3     1  UNL1        0.2526
      9 C           0.4090   99.5740   53.9220 C.2     1  UNL1        0.0371
     10 C          -0.2880  102.3120   54.6580 C.ar    1  UNL1        0.0033
     11 C           1.1160   92.9930   50.8540 C.3     1  UNL1        0.1137
     12 C           2.4490   94.1920   52.5260 C.ar    1  UNL1        0.3349
     13 C           3.7170   95.3450   54.2800 C.3     1  UNL1        0.1121
     14 C           0.3300  104.3800   55.6900 C.ar    1  UNL1        0.1774
     15 C          -0.5830  103.6260   54.9690 C.ar    1  UNL1        0.0402
     16 C           0.3790   95.2020   51.5920 C.ar    1  UNL1        0.2831
     17 O           0.1510  105.6870   56.0350 O.3     1  UNL1       -0.4682
     18 N           1.3340   94.1840   51.6960 N.ar    1  UNL1       -0.2475
     19 C           0.6960   91.7950   51.6460 C.3     1  UNL1        0.0267
     20 O           3.1410   93.2000   52.6740 O.2     1  UNL1       -0.2461
     21 C           1.2080  100.3480   54.6450 C.2     1  UNL1        0.0032
     22 C           0.9100  101.7240   55.0540 C.ar    1  UNL1        0.0035
     23 C           1.8210  102.4800   55.7980 C.ar    1  UNL1        0.0452
     24 C          -1.2650   97.9110   52.0060 C.3     1  UNL1        0.1321
     25 N           0.0050   97.5080   52.6180 N.ar    1  UNL1       -0.3045
     26 O           2.3830  104.6320   56.7940 O.3     1  UNL1       -0.2833
     27 O          -0.5780   95.0830   50.8390 O.2     1  UNL1       -0.2652
@<TRIPOS>BOND
     1     4     2   ar
     2     4     1   ar
     3     5     4   ar
     4     6     2   ar
     5     9     6    1
     6    12     1   ar
     7    13     3    1
     8    13     1    1
     9    14     7   ar
    10    15    10   ar
    11    15    14   ar
    12    16     5   ar
    13    17    14    1
    14    17     8    1
    15    18    16   ar
    16    18    12   ar
    17    18    11    1
    18    19    11    1
    19    20    12    2
    20    21     9    2
    21    22    21    1
    22    22    10   ar
    23    23    22   ar
    24    23     7   ar
    25    25    24    1
    26    25     5   ar
    27    25     6   ar
    28    26     7    1
    29    27    16    2
