@<TRIPOS>MOLECULE
8RWE_A1H3K_A1201
 27 29 0 0 0
SMALL
GASTEIGER

@<TRIPOS>ATOM
      1 C           4.9260   95.8070   53.6640 C.3     1  UNL1        0.0267
      2 C           3.6180   95.2570   54.1860 C.3     1  UNL1        0.1121
      3 O          -0.7410   95.0270   50.8100 O.2     1  UNL1       -0.2652
      4 C           2.3040   94.1290   52.4600 C.ar    1  UNL1        0.3349
      5 C           1.0300   93.0080   50.7010 C.3     1  UNL1        0.1137
      6 C           1.6870   96.3520   53.1380 C.ar    1  UNL1        0.1695
      7 C           0.5550   96.2790   52.3830 C.ar    1  UNL1        0.1527
      8 C           1.8800  102.1590   56.0870 C.ar    1  UNL1        0.0402
      9 C           0.8890  101.5670   55.2950 C.ar    1  UNL1        0.0033
     10 C           1.0840  100.1950   54.8100 C.2     1  UNL1        0.0032
     11 C           0.3230   99.5160   53.9580 C.2     1  UNL1        0.0371
     12 C           0.6800   98.1900   53.4740 C.ar    1  UNL1        0.1457
     13 C          -1.3760   97.8930   52.0160 C.3     1  UNL1        0.1321
     14 O           0.5960  105.5710   56.3840 O.3     1  UNL1       -0.2833
     15 N           1.2190   94.1610   51.5970 N.ar    1  UNL1       -0.2475
     16 C           0.1790   91.9270   51.3000 C.3     1  UNL1        0.0267
     17 O           2.9810   93.1280   52.6010 O.2     1  UNL1       -0.2461
     18 C           1.7900  103.4930   56.4450 C.ar    1  UNL1        0.1774
     19 C           0.6870  104.2590   56.0430 C.ar    1  UNL1        0.2293
     20 C          -0.3110  103.6650   55.2780 C.ar    1  UNL1        0.0452
     21 C          -0.2090  102.3360   54.9100 C.ar    1  UNL1        0.0035
     22 C           4.0100  103.5600   57.3120 C.3     1  UNL1        0.2526
     23 C           0.2430   95.1650   51.5200 C.ar    1  UNL1        0.2831
     24 N           2.5780   95.2980   53.1460 N.ar    1  UNL1       -0.2648
     25 N          -0.1030   97.4750   52.6060 N.ar    1  UNL1       -0.3045
     26 N           1.7870   97.5270   53.8180 N.ar    1  UNL1       -0.2094
     27 O           2.7380  104.1810   57.1470 O.3     1  UNL1       -0.4682
@<TRIPOS>BOND
     1     2     1    1
     2     7     6   ar
     3     9     8   ar
     4    10     9    1
     5    11    10    2
     6    12    11    1
     7    15     5    1
     8    15     4   ar
     9    16     5    1
    10    17     4    2
    11    18     8   ar
    12    19    18   ar
    13    19    14    1
    14    20    19   ar
    15    21     9   ar
    16    21    20   ar
    17    23    15   ar
    18    23     7   ar
    19    23     3    2
    20    24     6   ar
    21    24     4   ar
    22    24     2    1
    23    25    13    1
    24    25     7   ar
    25    25    12   ar
    26    26     6   ar
    27    26    12   ar
    28    27    18    1
    29    27    22    1
