@<TRIPOS>MOLECULE
8RWI_A1H3I_A1201
 26 28 0 0 0
SMALL
GASTEIGER

@<TRIPOS>ATOM
      1 O           4.7780  100.2640   58.6920 O.3     1  UNL1       -0.2831
      2 C           1.4870   93.2170   51.1680 C.3     1  UNL1        0.1137
      3 C           2.9060   94.7980   52.3900 C.ar    1  UNL1        0.3349
      4 C           4.3020   96.3090   53.7140 C.3     1  UNL1        0.1121
      5 C           4.5860   95.7660   55.0870 C.3     1  UNL1        0.0267
      6 C           1.9730   96.8550   53.1420 C.ar    1  UNL1        0.1695
      7 C           0.8200   96.6160   52.4940 C.ar    1  UNL1        0.1527
      8 C          -1.3020   97.9940   52.1790 C.3     1  UNL1        0.1321
      9 C           0.7920   98.5980   53.4720 C.ar    1  UNL1        0.1457
     10 N           1.6620   94.5190   51.8360 N.ar    1  UNL1       -0.2475
     11 C           1.5600   92.0510   52.1260 C.3     1  UNL1        0.0267
     12 O           3.8870   94.1170   52.1480 O.2     1  UNL1       -0.2461
     13 C           1.1230  100.7820   54.4870 C.2     1  UNL1        0.0032
     14 C           1.9250  100.7100   55.7140 C.ar    1  UNL1        0.0035
     15 C           2.7640  101.7620   56.0840 C.ar    1  UNL1        0.0454
     16 C           3.6830  101.5960   57.1030 C.ar    1  UNL1        0.2343
     17 C           3.7670  100.3650   57.7790 C.ar    1  UNL1        0.2343
     18 C           2.8990   99.3380   57.4520 C.ar    1  UNL1        0.0454
     19 C           1.9840   99.5180   56.4320 C.ar    1  UNL1        0.0035
     20 C           0.5600   95.3910   51.8120 C.ar    1  UNL1        0.2831
     21 C           0.2980   99.8420   54.0380 C.2     1  UNL1        0.0371
     22 N           2.9740   95.9010   53.2250 N.ar    1  UNL1       -0.2648
     23 N           0.0440   97.7480   52.7000 N.ar    1  UNL1       -0.3045
     24 N           1.9910   98.0750   53.7370 N.ar    1  UNL1       -0.2094
     25 O           4.5510  102.5590   57.5300 O.3     1  UNL1       -0.2831
     26 O          -0.4780   95.0720   51.2430 O.2     1  UNL1       -0.2652
@<TRIPOS>BOND
     1     5     4    1
     2     7     6   ar
     3    10     3   ar
     4    10     2    1
     5    11     2    1
     6    12     3    2
     7    14    13    1
     8    15    14   ar
     9    16    15   ar
    10    17    16   ar
    11    17     1    1
    12    18    17   ar
    13    19    18   ar
    14    19    14   ar
    15    20    10   ar
    16    20     7   ar
    17    21    13    2
    18    21     9    1
    19    22     6   ar
    20    22     4    1
    21    22     3   ar
    22    23     8    1
    23    23     7   ar
    24    23     9   ar
    25    24     6   ar
    26    24     9   ar
    27    25    16    1
    28    26    20    2
