@<TRIPOS>MOLECULE
8RWI_A1H3I_A1201
 26 28 0 0 0
SMALL
GASTEIGER

@<TRIPOS>ATOM
      1 O           4.8260  100.3190   58.6400 O.3     1  UNL1       -0.2831
      2 C           1.4600   93.2290   51.1890 C.3     1  UNL1        0.1137
      3 C           2.8920   94.8150   52.3890 C.ar    1  UNL1        0.3349
      4 C           4.3010   96.3320   53.6910 C.3     1  UNL1        0.1121
      5 C           4.5960   95.7980   55.0660 C.3     1  UNL1        0.0267
      6 C           1.9690   96.8790   53.1350 C.ar    1  UNL1        0.1695
      7 C           0.8100   96.6390   52.4980 C.ar    1  UNL1        0.1527
      8 C          -1.3120   98.0180   52.1910 C.3     1  UNL1        0.1321
      9 C           0.7940   98.6260   53.4630 C.ar    1  UNL1        0.1457
     10 N           1.6430   94.5360   51.8470 N.ar    1  UNL1       -0.2475
     11 C           1.5390   92.0700   52.1530 C.3     1  UNL1        0.0267
     12 O           3.8700   94.1310   52.1430 O.2     1  UNL1       -0.2461
     13 C           1.1370  100.8160   54.4610 C.2     1  UNL1        0.0032
     14 C           1.9490  100.7500   55.6820 C.ar    1  UNL1        0.0035
     15 C           2.7930  101.8030   56.0390 C.ar    1  UNL1        0.0454
     16 C           3.7210  101.6420   57.0520 C.ar    1  UNL1        0.2343
     17 C           3.8080  100.4160   57.7340 C.ar    1  UNL1        0.2343
     18 C           2.9350   99.3880   57.4210 C.ar    1  UNL1        0.0454
     19 C           2.0120   99.5630   56.4070 C.ar    1  UNL1        0.0035
     20 C           0.5430   95.4100   51.8260 C.ar    1  UNL1        0.2831
     21 C           0.3080   99.8750   54.0250 C.2     1  UNL1        0.0371
     22 N           2.9690   95.9240   53.2160 N.ar    1  UNL1       -0.2648
     23 N           0.0390   97.7730   52.7030 N.ar    1  UNL1       -0.3045
     24 N           1.9950   98.1030   53.7220 N.ar    1  UNL1       -0.2094
     25 O           4.5940  102.6070   57.4650 O.3     1  UNL1       -0.2831
     26 O          -0.5000   95.0880   51.2680 O.2     1  UNL1       -0.2652
@<TRIPOS>BOND
     1     5     4    1
     2     7     6   ar
     3    10     3   ar
     4    10     2    1
     5    11     2    1
     6    12     3    2
     7    14    13    1
     8    15    14   ar
     9    16    15   ar
    10    17    16   ar
    11    17     1    1
    12    18    17   ar
    13    19    18   ar
    14    19    14   ar
    15    20    10   ar
    16    20     7   ar
    17    21    13    2
    18    21     9    1
    19    22     6   ar
    20    22     4    1
    21    22     3   ar
    22    23     8    1
    23    23     7   ar
    24    23     9   ar
    25    24     6   ar
    26    24     9   ar
    27    25    16    1
    28    26    20    2
