@<TRIPOS>MOLECULE
8UGW_NGI_A1601
 36 39 0 0 0
SMALL
GASTEIGER

@<TRIPOS>ATOM
      1 C           1.2920   87.4610   48.9410 C.3     1  UNL1        0.0253
      2 N           2.0390   89.7010   49.7860 N.am    1  UNL1       -0.2033
      3 O           0.3900   90.8210   50.9440 O.2     1  UNL1       -0.2706
      4 C           1.0980   88.9800   48.8790 C.3     1  UNL1        0.1153
      5 N           1.4130   94.5390   52.2330 N.ar    1  UNL1       -0.2693
      6 O           2.6370   92.7970   51.1970 O.3     1  UNL1       -0.3238
      7 C           1.5950   90.6190   50.7330 C.2     1  UNL1        0.2713
      8 N          -0.7020   95.2940   51.6490 N.ar    1  UNL1       -0.2193
      9 O           4.0260   92.8480   54.0020 O.3     1  UNL1       -0.2155
     10 C           2.6230   91.4290   51.5660 C.3     1  UNL1        0.2273
     11 N          -1.4960   98.2440   52.4010 N.pl3   1  UNL1       -0.1054
     12 O           3.1130   90.4110   53.7250 O.3     1  UNL1       -0.2171
     13 C           2.6390   93.6840   52.3060 C.3     1  UNL1        0.2413
     14 N           0.6220   98.4800   53.3440 N.ar    1  UNL1       -0.1925
     15 O          -2.9710  107.8280   55.4720 O.co2   1  UNL1       -0.2456
     16 C           2.6840   92.7950   53.6080 C.3     1  UNL1        0.2342
     17 N           2.8070   98.7620   54.3330 N.pl3   1  UNL1       -0.2034
     18 O          -3.4990  107.6700   57.5560 O.co2   1  UNL1       -0.2456
     19 C           2.3070   91.3490   53.0970 C.3     1  UNL1        0.2225
     20 N           2.3060   96.6260   53.3530 N.ar    1  UNL1       -0.1933
     21 C           0.1470   94.2660   51.6190 C.ar    1  UNL1        0.1816
     22 C           0.0110   96.3110   52.3090 C.ar    1  UNL1        0.1518
     23 C          -0.2900   97.6670   52.6790 C.ar    1  UNL1        0.1930
     24 C           1.8860   97.9420   53.6670 C.ar    1  UNL1        0.2392
     25 C           2.6120  100.1980   54.6240 C.3     1  UNL1        0.1200
     26 C           1.6070  100.4510   55.7960 C.3     1  UNL1        0.0498
     27 C           0.9710  101.8150   55.7490 C.ar    1  UNL1       -0.0204
     28 C           0.1780  102.2100   54.6510 C.ar    1  UNL1       -0.0045
     29 C          -0.4110  103.4860   54.6170 C.ar    1  UNL1       -0.0046
     30 C          -0.2220  104.3960   55.6770 C.ar    1  UNL1       -0.0216
     31 C          -0.8680  105.7500   55.6050 C.3     1  UNL1        0.0382
     32 C          -2.0050  105.8830   56.6340 C.3     1  UNL1        0.1187
     33 C          -2.8360  107.1550   56.4800 C.2     1  UNL1        0.3652
     34 C           0.5670  104.0080   56.7750 C.ar    1  UNL1       -0.0046
     35 C           1.1580  102.7280   56.8080 C.ar    1  UNL1       -0.0045
     36 C           1.3340   95.8760   52.6870 C.ar    1  UNL1        0.1703
@<TRIPOS>BOND
     1     4     1    1
     2     4     2    1
     3     7     3    2
     4     7     2   am
     5    10     7    1
     6    10     6    1
     7    13     6    1
     8    13     5    1
     9    16    13    1
    10    16     9    1
    11    19    12    1
    12    19    10    1
    13    19    16    1
    14    21     8   ar
    15    21     5   ar
    16    22     8   ar
    17    23    22   ar
    18    23    14   ar
    19    23    11    1
    20    24    20   ar
    21    24    17    1
    22    24    14   ar
    23    25    17    1
    24    26    25    1
    25    27    26    1
    26    28    27   ar
    27    29    28   ar
    28    30    29   ar
    29    31    30    1
    30    32    31    1
    31    33    32    1
    32    33    18   ar
    33    33    15   ar
    34    34    30   ar
    35    35    27   ar
    36    35    34   ar
    37    36    22   ar
    38    36    20   ar
    39    36     5   ar
