@<TRIPOS>MOLECULE
8WDT_WCH_A1000
 30 33 0 0 0
SMALL
GASTEIGER

@<TRIPOS>ATOM
      1 C           2.0650   91.3840   53.2870 C.3     1  UNL1        0.2225
      2 C           1.4360   90.5480   50.9980 C.2     1  UNL1        0.2713
      3 C           2.2960  101.0470   56.0810 C.ar    1  UNL1        0.1030
      4 C           2.4800  103.1960   57.3920 C.ar    1  UNL1        0.0016
      5 C           4.2470  101.4490   57.6230 C.ar    1  UNL1        0.0016
      6 C           0.4710   88.8710   49.2800 C.3     1  UNL1        0.1153
      7 C           1.2400   95.7790   52.4690 C.ar    1  UNL1        0.1706
      8 C           0.0040   96.0800   51.8070 C.ar    1  UNL1        0.1519
      9 C           0.6210   94.0120   51.0790 C.ar    1  UNL1        0.1816
     10 C           1.2030   97.8870   53.6050 C.ar    1  UNL1        0.2731
     11 C          -0.6670   97.4210   52.0930 C.ar    1  UNL1        0.1933
     12 C           2.8730   93.5730   52.3520 C.3     1  UNL1        0.2413
     13 C           2.5740   91.2570   51.8440 C.3     1  UNL1        0.2273
     14 C           2.7920   92.7170   53.6970 C.3     1  UNL1        0.2342
     15 C           1.7570  102.3600   56.4430 C.ar    1  UNL1        0.0209
     16 C           3.7220  102.7430   57.9820 C.ar    1  UNL1        0.0001
     17 C           3.5390  100.6010   56.6770 C.ar    1  UNL1        0.0209
     18 C           0.6320   87.3300   49.0900 C.3     1  UNL1        0.0253
     19 N           1.6500   94.4390   52.0050 N.ar    1  UNL1       -0.2693
     20 N          -0.3420   94.9540   50.9530 N.ar    1  UNL1       -0.2193
     21 N           1.8450   96.7060   53.3860 N.ar    1  UNL1       -0.1896
     22 N          -0.0280   98.2910   53.0020 N.ar    1  UNL1       -0.1888
     23 N          -1.9020   97.7980   51.4710 N.pl3   1  UNL1       -0.1054
     24 N           1.9540   98.9440   54.6920 N.2     1  UNL1       -0.1080
     25 N           1.6020   89.5090   50.0600 N.am    1  UNL1       -0.2033
     26 N           1.5220  100.0730   55.0230 N.2     1  UNL1       -0.1450
     27 O           3.0190   92.5200   51.3940 O.3     1  UNL1       -0.3238
     28 O           2.4360   90.2520   54.0100 O.3     1  UNL1       -0.2171
     29 O           4.0650   92.3760   54.1250 O.3     1  UNL1       -0.2155
     30 O           0.3030   90.9810   51.2200 O.2     1  UNL1       -0.2706
@<TRIPOS>BOND
     1     8     7   ar
     2    11     8   ar
     3    13     2    1
     4    13     1    1
     5    14     1    1
     6    14    12    1
     7    15     4   ar
     8    15     3   ar
     9    16     5   ar
    10    16     4   ar
    11    17     5   ar
    12    17     3   ar
    13    18     6    1
    14    12    19    1
    15    19     9   ar
    16    19     7   ar
    17    20     9   ar
    18    20     8   ar
    19    21    10   ar
    20    21     7   ar
    21    22    11   ar
    22    22    10   ar
    23    23    11    1
    24    24    10    1
    25    25     6    1
    26    25     2   am
    27    26    24    2
    28    26     3    1
    29    27    13    1
    30    27    12    1
    31     1    28    1
    32    14    29    1
    33    30     2    2
