@<TRIPOS>MOLECULE
9EE8_ADN_A400
 19 21 0 0 0
SMALL
GASTEIGER

@<TRIPOS>ATOM
      1 O5*         1.4890   91.6420   49.8360 O.3     1    A1       -0.2176
      2 C5*         1.8740   90.6980   50.8250 C.3     1    A1        0.2142
      3 C4*         2.6400   91.3550   51.9420 C.3     1    A1        0.1831
      4 O4*         3.0070   92.7080   51.5510 O.3     1    A1       -0.3305
      5 C3*         1.8850   91.5300   53.2530 C.3     1    A1        0.2162
      6 O3*         1.9300   90.3760   54.0740 O.3     1    A1       -0.2175
      7 C2*         2.5600   92.7440   53.8690 C.3     1    A1        0.2337
      8 O2*         3.8160   92.3870   54.4270 O.3     1    A1       -0.2155
      9 C1*         2.8080   93.5930   52.6300 C.3     1    A1        0.2409
     10 N9          1.6520   94.4490   52.3100 N.ar    1    A1       -0.2693
     11 C8          0.6130   94.1450   51.4700 C.ar    1    A1        0.1816
     12 N7         -0.2870   95.0920   51.3660 N.ar    1    A1       -0.2193
     13 C5          0.1940   96.0930   52.1960 C.ar    1    A1        0.1518
     14 C6         -0.2980   97.3690   52.5270 C.ar    1    A1        0.1919
     15 N6         -1.4340   97.8770   52.0430 N.pl3   1    A1       -0.1054
     16 N1          0.4260   98.1180   53.3880 N.ar    1    A1       -0.2040
     17 C2          1.5620   97.6160   53.8770 C.ar    1    A1        0.2016
     18 N3          2.1240   96.4280   53.6370 N.ar    1    A1       -0.2048
     19 C4          1.3880   95.7100   52.7840 C.ar    1    A1        0.1692
@<TRIPOS>BOND
     1     2     1    1
     2     3     2    1
     3     4     3    1
     4     5     3    1
     5     5     6    1
     6     7     5    1
     7     7     8    1
     8     9     7    1
     9     9     4    1
    10     9    10    1
    11    11    10   ar
    12    12    11   ar
    13    13    12   ar
    14    14    13   ar
    15    15    14    1
    16    16    14   ar
    17    17    16   ar
    18    18    17   ar
    19    19    18   ar
    20    19    13   ar
    21    19    10   ar
