@<TRIPOS>MOLECULE
9EEA_ADN_A400
 19 21 0 0 0
SMALL
GASTEIGER

@<TRIPOS>ATOM
      1 O5*         0.6020   90.3480   54.1880 O.3     1    A1       -0.2176
      2 C5*         0.5350   90.5790   52.7850 C.3     1    A1        0.2142
      3 C4*         1.8740   90.9870   52.2220 C.3     1    A1        0.1831
      4 O4*         1.7020   92.1850   51.4250 O.3     1    A1       -0.3305
      5 C3*         2.9290   91.3290   53.2600 C.3     1    A1        0.2162
      6 O3*         4.2260   91.1140   52.7090 O.3     1    A1       -0.2175
      7 C2*         2.7060   92.8200   53.4670 C.3     1    A1        0.2337
      8 O2*         3.8280   93.5160   53.9650 O.3     1    A1       -0.2155
      9 C1*         2.3350   93.2850   52.0580 C.3     1    A1        0.2409
     10 N9          1.4040   94.4130   52.0320 N.ar    1    A1       -0.2693
     11 C8          0.3570   94.5950   51.1660 C.ar    1    A1        0.1816
     12 N7         -0.3210   95.6990   51.3680 N.ar    1    A1       -0.2193
     13 C5          0.3230   96.2860   52.4470 C.ar    1    A1        0.1518
     14 C6          0.0920   97.4800   53.1560 C.ar    1    A1        0.1919
     15 N6         -0.8930   98.3350   52.8680 N.pl3   1    A1       -0.1054
     16 N1          0.9190   97.7710   54.1820 N.ar    1    A1       -0.2040
     17 C2          1.9060   96.9190   54.4740 C.ar    1    A1        0.2016
     18 N3          2.2210   95.7680   53.8780 N.ar    1    A1       -0.2048
     19 C4          1.3860   95.5030   52.8680 C.ar    1    A1        0.1692
@<TRIPOS>BOND
     1     2     1    1
     2     3     2    1
     3     4     3    1
     4     5     3    1
     5     5     6    1
     6     7     5    1
     7     7     8    1
     8     9     4    1
     9     9     7    1
    10     9    10    1
    11    11    10   ar
    12    12    11   ar
    13    13    12   ar
    14    14    13   ar
    15    15    14    1
    16    16    14   ar
    17    17    16   ar
    18    18    17   ar
    19    19    18   ar
    20    19    13   ar
    21    19    10   ar
