@<TRIPOS>MOLECULE
9EEA_ADN_A400
 19 21 0 0 0
SMALL
GASTEIGER

@<TRIPOS>ATOM
      1 O5*         0.3350   90.1110   54.1360 O.3     1    A1       -0.2176
      2 C5*         0.2650   90.3640   52.7370 C.3     1    A1        0.2142
      3 C4*         1.6070   90.7600   52.1740 C.3     1    A1        0.1831
      4 O4*         1.4500   91.9730   51.3960 O.3     1    A1       -0.3305
      5 C3*         2.6710   91.0710   53.2120 C.3     1    A1        0.2162
      6 O3*         3.9630   90.8440   52.6510 O.3     1    A1       -0.2175
      7 C2*         2.4720   92.5620   53.4420 C.3     1    A1        0.2337
      8 O2*         3.6070   93.2330   53.9460 O.3     1    A1       -0.2155
      9 C1*         2.1020   93.0530   52.0430 C.3     1    A1        0.2409
     10 N9          1.1880   94.1960   52.0380 N.ar    1    A1       -0.2693
     11 C8          0.1400   94.4070   51.1800 C.ar    1    A1        0.1816
     12 N7         -0.5210   95.5180   51.4020 N.ar    1    A1       -0.2193
     13 C5          0.1370   96.0780   52.4870 C.ar    1    A1        0.1518
     14 C6         -0.0730   97.2640   53.2150 C.ar    1    A1        0.1919
     15 N6         -1.0460   98.1390   52.9450 N.pl3   1    A1       -0.1054
     16 N1          0.7630   97.5270   54.2420 N.ar    1    A1       -0.2040
     17 C2          1.7390   96.6560   54.5160 C.ar    1    A1        0.2016
     18 N3          2.0340   95.5100   53.9010 N.ar    1    A1       -0.2048
     19 C4          1.1910   95.2730   52.8910 C.ar    1    A1        0.1692
@<TRIPOS>BOND
     1     2     1    1
     2     3     2    1
     3     4     3    1
     4     5     3    1
     5     5     6    1
     6     7     5    1
     7     7     8    1
     8     9     7    1
     9     9     4    1
    10     9    10    1
    11    11    10   ar
    12    12    11   ar
    13    13    12   ar
    14    14    13   ar
    15    15    14    1
    16    16    14   ar
    17    17    16   ar
    18    18    17   ar
    19    19    18   ar
    20    19    13   ar
    21    19    10   ar
