@<TRIPOS>MOLECULE
9FUP_JQ9_A1220
 52 54 0 0 0
SMALL
GASTEIGER

@<TRIPOS>ATOM
      1 N           1.1950   94.0930   52.0580 N.ar    1  UNL1       -0.2593
      2 C           1.0590   92.8960   49.8850 C.3     1  UNL1       -0.0468
      3 O           3.1410   93.2580   52.9070 O.2     1  UNL1       -0.2462
      4 C           2.3660   94.1890   52.8060 C.ar    1  UNL1        0.3336
      5 N           2.6170   95.3880   53.4300 N.ar    1  UNL1       -0.2767
      6 C           3.8310   95.5480   54.2290 C.3     1  UNL1        0.0267
      7 C           4.9550   96.1930   53.4340 C.3     1  UNL1       -0.0469
      8 C           1.7290   96.4190   53.3000 C.ar    1  UNL1        0.1687
      9 N           1.8320   97.6350   53.8420 N.ar    1  UNL1       -0.2101
     10 C           0.7350   98.2820   53.4380 C.ar    1  UNL1        0.1362
     11 N          -0.0520   97.5090   52.6570 N.ar    1  UNL1       -0.3217
     12 C          -1.3140   97.8460   52.0280 C.3     1  UNL1        0.0140
     13 C           0.5810   96.2930   52.5590 C.ar    1  UNL1        0.1517
     14 C           0.2360   95.0990   51.8750 C.ar    1  UNL1        0.2824
     15 O          -0.7560   94.9180   51.1900 O.2     1  UNL1       -0.2652
     16 C           0.9180   92.8160   51.3980 C.3     1  UNL1        0.0282
     17 C           0.4130   99.6460   53.7810 C.2     1  UNL1       -0.0185
     18 C           1.1440  100.3750   54.6370 C.2     1  UNL1       -0.0510
     19 C           0.8800  101.7530   55.0220 C.ar    1  UNL1       -0.0212
     20 C          -0.3000  102.4220   54.7140 C.ar    1  UNL1       -0.0509
     21 C          -0.4940  103.7380   55.1030 C.ar    1  UNL1       -0.0157
     22 C           0.4890  104.4210   55.8070 C.ar    1  UNL1        0.1615
     23 O           0.4110  105.6900   56.2300 O.3     1  UNL1       -0.4915
     24 C          -0.8220  106.3890   56.1050 C.3     1  UNL1        0.0790
     25 C           1.6930  103.7600   56.1240 C.ar    1  UNL1        0.1620
     26 C           1.8740  102.4470   55.7330 C.ar    1  UNL1       -0.0092
     27 O           2.5810  104.5030   56.8070 O.3     1  UNL1       -0.4914
     28 C           3.6850  103.8470   57.4140 C.3     1  UNL1        0.0790
     29 H           0.6340   93.6920   49.5300 H       1  UNL1        0.0247
     30 H           1.9910   92.9200   49.6160 H       1  UNL1        0.0247
     31 H           0.6520   92.1310   49.4500 H       1  UNL1        0.0247
     32 H           3.6100   96.0840   55.0070 H       1  UNL1        0.0491
     33 H           4.0970   94.6730   54.5500 H       1  UNL1        0.0491
     34 H           5.7860   96.1940   53.9340 H       1  UNL1        0.0247
     35 H           5.1150   95.7210   52.6020 H       1  UNL1        0.0247
     36 H           4.7460   97.1140   53.2120 H       1  UNL1        0.0247
     37 H          -1.6720   97.0770   51.5590 H       1  UNL1        0.0456
     38 H          -1.9580   98.1280   52.6970 H       1  UNL1        0.0456
     39 H          -1.1910   98.5680   51.3930 H       1  UNL1        0.0456
     40 H           1.5270   92.1570   51.7650 H       1  UNL1        0.0491
     41 H           0.0200   92.5450   51.6450 H       1  UNL1        0.0491
     42 H          -0.3390  100.0180   53.3800 H       1  UNL1        0.0654
     43 H           1.8890   99.9800   55.0280 H       1  UNL1        0.0625
     44 H          -0.9800  101.9980   54.2420 H       1  UNL1        0.0625
     45 H          -1.2950  104.1570   54.8840 H       1  UNL1        0.0655
     46 H          -1.1250  106.4280   55.1840 H       1  UNL1        0.0660
     47 H          -1.5300  105.9690   56.6170 H       1  UNL1        0.0660
     48 H          -0.7520  107.3050   56.4170 H       1  UNL1        0.0660
     49 H           2.6640  102.0020   55.9380 H       1  UNL1        0.0661
     50 H           4.3190  103.5180   56.7580 H       1  UNL1        0.0660
     51 H           4.1760  104.4350   58.0080 H       1  UNL1        0.0660
     52 H           3.4080  103.0820   57.9440 H       1  UNL1        0.0660
@<TRIPOS>BOND
     1     4     3    2
     2     4     1   ar
     3     5     4   ar
     4     6     5    1
     5     7     6    1
     6     8     5   ar
     7     9     8   ar
     8    10     9   ar
     9    11    10   ar
    10    12    11    1
    11    13    11   ar
    12    13     8   ar
    13    14    13   ar
    14    14     1   ar
    15    15    14    2
    16    16     2    1
    17    16     1    1
    18    17    10    1
    19    18    17    2
    20    19    18    1
    21    20    19   ar
    22    21    20   ar
    23    22    21   ar
    24    23    22    1
    25    24    23    1
    26    25    22   ar
    27    26    19   ar
    28    26    25   ar
    29    27    25    1
    30    28    27    1
    31     2    29    1
    32    30     2    1
    33    31     2    1
    34     6    32    1
    35    33     6    1
    36     7    34    1
    37    35     7    1
    38    36     7    1
    39    12    37    1
    40    38    12    1
    41    39    12    1
    42    16    40    1
    43    41    16    1
    44    42    17    1
    45    43    18    1
    46    44    20    1
    47    45    21    1
    48    24    46    1
    49    47    24    1
    50    48    24    1
    51    49    26    1
    52    28    50    1
    53    51    28    1
    54    52    28    1
