@<TRIPOS>MOLECULE
9P1S_ZMA_A502
 25 28 0 0 0
SMALL
GASTEIGER

@<TRIPOS>ATOM
      1 C           0.9450  103.8540   55.7860 C.ar    1  UNL1       -0.0009
      2 C           0.3020  105.0810   55.7860 C.ar    1  UNL1        0.0417
      3 C          -1.0750  105.1350   55.6750 C.ar    1  UNL1        0.1957
      4 O          -1.7180  106.3390   55.6740 O.3     1  UNL1       -0.2866
      5 C          -1.7990  103.9630   55.5640 C.ar    1  UNL1        0.0417
      6 C          -1.1400  102.7450   55.5660 C.ar    1  UNL1       -0.0009
      7 C           0.2380  102.6690   55.6790 C.ar    1  UNL1       -0.0202
      8 C           0.9460  101.3330   55.6750 C.3     1  UNL1        0.0498
      9 C           1.2930  100.8870   54.2730 C.3     1  UNL1        0.1200
     10 N           1.7660   99.5090   54.2360 N.pl3   1  UNL1       -0.2034
     11 C           1.0760   98.5630   53.5950 C.ar    1  UNL1        0.2415
     12 N           1.6480   97.3320   53.5130 N.ar    1  UNL1       -0.1757
     13 N          -0.1330   98.9330   53.0960 N.ar    1  UNL1       -0.1769
     14 C          -0.8410   97.9980   52.4520 C.ar    1  UNL1        0.2627
     15 N          -2.0220   98.3010   51.9450 N.pl3   1  UNL1       -0.0858
     16 N          -0.3170   96.7340   52.3310 N.ar    1  UNL1       -0.1614
     17 N          -0.8630   95.6610   51.7260 N.ar    1  UNL1       -0.1374
     18 C           0.8820   96.4370   52.8490 C.ar    1  UNL1        0.2594
     19 N           1.1660   95.1570   52.6010 N.ar    1  UNL1       -0.1861
     20 C           0.0820   94.7140   51.9130 C.ar    1  UNL1        0.2196
     21 C          -0.0550   93.3600   51.4290 C.ar    1  UNL1        0.1828
     22 C           0.8060   92.3210   51.4430 C.ar    1  UNL1        0.0440
     23 C           0.1360   91.2270   50.8300 C.ar    1  UNL1        0.0439
     24 C          -1.1130   91.6890   50.4860 C.ar    1  UNL1        0.1798
     25 O          -1.2450   93.0040   50.8500 O.2     1  UNL1       -0.4472
@<TRIPOS>BOND
     1     2     1   ar
     2     3     2   ar
     3     4     3    1
     4     5     3   ar
     5     6     5   ar
     6     7     6   ar
     7     7     1   ar
     8     8     7    1
     9     9     8    1
    10    10     9    1
    11    11    10    1
    12    12    11   ar
    13    13    11   ar
    14    14    13   ar
    15    15    14    1
    16    16    14   ar
    17    17    16   ar
    18    18    16   ar
    19    18    12   ar
    20    19    18   ar
    21    20    19   ar
    22    20    17   ar
    23    21    20    1
    24    22    21   ar
    25    23    22   ar
    26    24    23   ar
    27    25    24   ar
    28    25    21   ar
