@<TRIPOS>MOLECULE
9T9P_ZMA_B901
 25 28 0 0 0
SMALL
GASTEIGER

@<TRIPOS>ATOM
      1 C           0.8030  102.4790   57.2050 C.ar    1  UNL1       -0.0009
      2 C           0.2510  103.7190   57.4740 C.ar    1  UNL1        0.0417
      3 C           0.0750  104.6340   56.4490 C.ar    1  UNL1        0.1957
      4 O          -0.4690  105.8580   56.7080 O.3     1  UNL1       -0.2866
      5 C           0.4530  104.2990   55.1580 C.ar    1  UNL1        0.0417
      6 C           1.0040  103.0570   54.9020 C.ar    1  UNL1       -0.0009
      7 C           1.1870  102.1300   55.9180 C.ar    1  UNL1       -0.0202
      8 C           1.7880  100.7760   55.6300 C.3     1  UNL1        0.0498
      9 C           1.3980  100.2400   54.2650 C.3     1  UNL1        0.1200
     10 N           1.8640   98.8740   54.0660 N.pl3   1  UNL1       -0.2034
     11 C           1.1520   97.9450   53.3560 C.ar    1  UNL1        0.2415
     12 N           1.7170   96.7450   53.2490 N.ar    1  UNL1       -0.1757
     13 N          -0.0430   98.3490   52.8460 N.ar    1  UNL1       -0.1769
     14 C          -0.7470   97.4580   52.1530 C.ar    1  UNL1        0.2627
     15 N          -1.9310   97.7490   51.6090 N.pl3   1  UNL1       -0.0858
     16 N          -0.2320   96.1980   51.9970 N.ar    1  UNL1       -0.1614
     17 N          -0.7750   95.1300   51.3330 N.ar    1  UNL1       -0.1374
     18 C           0.9820   95.8650   52.5440 C.ar    1  UNL1        0.2594
     19 N           1.2560   94.5940   52.2540 N.ar    1  UNL1       -0.1861
     20 C           0.1600   94.2050   51.5210 C.ar    1  UNL1        0.2196
     21 C          -0.0080   92.8680   50.9670 C.ar    1  UNL1        0.1828
     22 C           0.7560   91.7560   51.0000 C.ar    1  UNL1        0.0440
     23 C           0.0480   90.7610   50.2700 C.ar    1  UNL1        0.0439
     24 C          -1.0820   91.3240   49.8480 C.ar    1  UNL1        0.1798
     25 O          -1.1540   92.6320   50.2620 O.2     1  UNL1       -0.4472
@<TRIPOS>BOND
     1     2     1   ar
     2     3     2   ar
     3     4     3    1
     4     5     3   ar
     5     6     5   ar
     6     7     6   ar
     7     7     1   ar
     8     8     7    1
     9     9     8    1
    10    10     9    1
    11    11    10    1
    12    12    11   ar
    13    13    11   ar
    14    14    13   ar
    15    15    14    1
    16    16    14   ar
    17    17    16   ar
    18    18    16   ar
    19    18    12   ar
    20    19    18   ar
    21    20    19   ar
    22    20    17   ar
    23    21    20    1
    24    22    21   ar
    25    23    22   ar
    26    24    23   ar
    27    25    24   ar
    28    25    21   ar
