@<TRIPOS>MOLECULE
6D6T_ABU_A405
 7 6 0 0 0
SMALL
GASTEIGER

@<TRIPOS>ATOM
      1 N         187.7070  225.1420  244.3530 N.3     1  UNL1       -0.1314
      2 C         187.9410  223.8340  244.9330 C.3     1  UNL1        0.1099
      3 C         186.7070  222.9560  244.7610 C.3     1  UNL1        0.0323
      4 C         187.0070  221.4920  245.0610 C.3     1  UNL1        0.1156
      5 C         185.7710  220.6170  244.8870 C.2     1  UNL1        0.3649
      6 O         184.9430  220.5140  245.8270 O.co2   1  UNL1       -0.2457
      7 O         185.5790  220.0020  243.8090 O.co2   1  UNL1       -0.2457
@<TRIPOS>BOND
     1     2     1    1
     2     3     2    1
     3     4     3    1
     4     5     4    1
     5     6     5   ar
     6     7     5   ar
