@<TRIPOS>MOLECULE
6HUJ_ABU_D507
 7 6 0 0 0
SMALL
GASTEIGER

@<TRIPOS>ATOM
      1 N         188.8160  224.9340  244.0860 N.3     1  UNL1       -0.1314
      2 C         188.9180  223.5000  244.3610 C.3     1  UNL1        0.1099
      3 C         187.5620  222.8210  244.3650 C.3     1  UNL1        0.0323
      4 C         187.6470  221.3290  244.6490 C.3     1  UNL1        0.1156
      5 C         186.3190  220.6330  244.6580 C.2     1  UNL1        0.3649
      6 O         185.2380  221.2220  244.4510 O.co2   1  UNL1       -0.2457
      7 O         186.4020  219.4090  244.8920 O.co2   1  UNL1       -0.2457
@<TRIPOS>BOND
     1     2     1    1
     2     3     2    1
     3     4     3    1
     4     5     4    1
     5     6     5   ar
     6     7     5   ar
