@<TRIPOS>MOLECULE
6HUP_ABU_E501
 7 6 0 0 0
SMALL
GASTEIGER

@<TRIPOS>ATOM
      1 N         188.7620  225.1660  244.4090 N.3     1  UNL1       -0.1314
      2 C         188.9420  223.7200  244.5040 C.3     1  UNL1        0.1099
      3 C         187.6180  222.9920  244.5690 C.3     1  UNL1        0.0323
      4 C         187.7670  221.4830  244.6670 C.3     1  UNL1        0.1156
      5 C         186.4550  220.7560  244.7300 C.2     1  UNL1        0.3649
      6 O         186.5640  219.5150  244.8140 O.co2   1  UNL1       -0.2457
      7 O         185.3550  221.3410  244.6880 O.co2   1  UNL1       -0.2457
@<TRIPOS>BOND
     1     2     1    1
     2     3     2    1
     3     4     3    1
     4     5     4    1
     5     6     5   ar
     6     7     5   ar
