@<TRIPOS>MOLECULE
6X3V_ABU_A402
 7 6 0 0 0
SMALL
GASTEIGER

@<TRIPOS>ATOM
      1 N         189.2620  224.6600  243.0550 N.3     1  UNL1       -0.1314
      2 C         188.5160  224.4760  244.2840 C.3     1  UNL1        0.1099
      3 C         188.0240  223.0390  244.3760 C.3     1  UNL1        0.0323
      4 C         186.7350  222.9240  245.1750 C.3     1  UNL1        0.1156
      5 C         186.2070  221.5020  245.1290 C.2     1  UNL1        0.3649
      6 O         184.9770  221.2770  245.0180 O.co2   1  UNL1       -0.2457
      7 O         187.0200  220.5530  245.1890 O.co2   1  UNL1       -0.2457
@<TRIPOS>BOND
     1     2     1    1
     2     3     2    1
     3     4     3    1
     4     5     4    1
     5     6     5   ar
     6     7     5   ar
