@<TRIPOS>MOLECULE
6X3W_ABU_A405
 7 6 0 0 0
SMALL
GASTEIGER

@<TRIPOS>ATOM
      1 N         189.4040  224.6980  243.2460 N.3     1  UNL1       -0.1314
      2 C         188.8330  224.1680  244.4840 C.3     1  UNL1        0.1099
      3 C         187.6600  223.2830  244.0890 C.3     1  UNL1        0.0323
      4 C         187.2900  222.3640  245.2440 C.3     1  UNL1        0.1156
      5 C         186.2700  221.3780  244.7500 C.2     1  UNL1        0.3649
      6 O         185.7980  221.4730  243.6440 O.co2   1  UNL1       -0.2457
      7 O         185.8160  220.4330  245.5730 O.co2   1  UNL1       -0.2457
@<TRIPOS>BOND
     1     2     1    1
     2     3     2    1
     3     4     3    1
     4     5     4    1
     5     6     5   ar
     6     7     5   ar
