@<TRIPOS>MOLECULE
6X40_ABU_A405
 7 6 0 0 0
SMALL
GASTEIGER

@<TRIPOS>ATOM
      1 N         189.3080  224.6960  243.6470 N.3     1  UNL1       -0.1314
      2 C         188.8340  223.7600  244.6700 C.3     1  UNL1        0.1099
      3 C         187.5520  223.1190  244.1590 C.3     1  UNL1        0.0323
      4 C         187.2260  221.8420  244.9290 C.3     1  UNL1        0.1156
      5 C         186.0700  221.1810  244.2290 C.2     1  UNL1        0.3649
      6 O         185.6080  219.9930  244.6190 O.co2   1  UNL1       -0.2457
      7 O         185.5160  221.7390  243.3190 O.co2   1  UNL1       -0.2457
@<TRIPOS>BOND
     1     2     1    1
     2     3     2    1
     3     4     3    1
     4     5     4    1
     5     6     5   ar
     6     7     5   ar
