@<TRIPOS>MOLECULE
7QNA_ABU_B501
 7 6 0 0 0
SMALL
GASTEIGER

@<TRIPOS>ATOM
      1 N         188.3980  225.2250  243.3220 N.3     1  UNL1       -0.1314
      2 C         188.5890  223.9520  244.0220 C.3     1  UNL1        0.1099
      3 C         187.3480  223.0820  243.9940 C.3     1  UNL1        0.0323
      4 C         187.5380  221.7580  244.7190 C.3     1  UNL1        0.1156
      5 C         186.3270  220.8700  244.7090 C.2     1  UNL1        0.3649
      6 O         186.5010  219.7880  245.3090 O.co2   1  UNL1       -0.2457
      7 O         185.2520  221.1870  244.1550 O.co2   1  UNL1       -0.2457
@<TRIPOS>BOND
     1     2     1    1
     2     3     2    1
     3     4     3    1
     4     5     4    1
     5     6     5   ar
     6     7     5   ar
