@<TRIPOS>MOLECULE
7QNB_ABU_B501
 7 6 0 0 0
SMALL
GASTEIGER

@<TRIPOS>ATOM
      1 N         188.6240  225.2150  243.1370 N.3     1  UNL1       -0.1314
      2 C         188.6630  224.0270  243.9940 C.3     1  UNL1        0.1099
      3 C         187.3990  223.1940  243.8880 C.3     1  UNL1        0.0323
      4 C         187.4300  221.9570  244.7760 C.3     1  UNL1        0.1156
      5 C         186.1940  221.1110  244.6940 C.2     1  UNL1        0.3649
      6 O         186.2360  220.1010  245.4290 O.co2   1  UNL1       -0.2457
      7 O         185.2200  221.3920  243.9640 O.co2   1  UNL1       -0.2457
@<TRIPOS>BOND
     1     2     1    1
     2     3     2    1
     3     4     3    1
     4     5     4    1
     5     6     5   ar
     6     7     5   ar
