@<TRIPOS>MOLECULE
8DD2_ABU_C403
 7 6 0 0 0
SMALL
GASTEIGER

@<TRIPOS>ATOM
      1 N         189.1980  225.4540  243.3010 N.3     1  UNL1       -0.1314
      2 C         189.0660  224.4990  244.3870 C.3     1  UNL1        0.1099
      3 C         188.1000  223.3800  244.0130 C.3     1  UNL1        0.0323
      4 C         187.8810  222.3950  245.1550 C.3     1  UNL1        0.1156
      5 C         186.7410  221.4170  244.8840 C.2     1  UNL1        0.3649
      6 O         185.5490  221.7660  245.0660 O.co2   1  UNL1       -0.2457
      7 O         186.9870  220.2570  244.4780 O.co2   1  UNL1       -0.2457
@<TRIPOS>BOND
     1     2     1    1
     2     3     2    1
     3     4     3    1
     4     5     4    1
     5     6     5   ar
     6     7     5   ar
