@<TRIPOS>MOLECULE
8DD3_ABU_A402
 7 6 0 0 0
SMALL
GASTEIGER

@<TRIPOS>ATOM
      1 N         188.7820  225.2040  243.2430 N.3     1  UNL1       -0.1314
      2 C         188.5630  224.4650  244.4690 C.3     1  UNL1        0.1099
      3 C         188.0760  223.0610  244.1400 C.3     1  UNL1        0.0323
      4 C         187.3840  222.4290  245.3380 C.3     1  UNL1        0.1156
      5 C         186.6400  221.1520  244.9710 C.2     1  UNL1        0.3649
      6 O         187.0560  220.0500  245.3970 O.co2   1  UNL1       -0.2457
      7 O         185.6130  221.1980  244.2520 O.co2   1  UNL1       -0.2457
@<TRIPOS>BOND
     1     2     1    1
     2     3     2    1
     3     4     3    1
     4     5     4    1
     5     6     5   ar
     6     7     5   ar
