@<TRIPOS>MOLECULE
8SID_ABU_C402
 7 6 0 0 0
SMALL
GASTEIGER

@<TRIPOS>ATOM
      1 N         188.9530  224.9460  243.9090 N.3     1  UNL1       -0.1314
      2 C         188.7380  223.9130  244.9000 C.3     1  UNL1        0.1099
      3 C         187.9830  222.7530  244.2610 C.3     1  UNL1        0.0323
      4 C         187.3550  221.9180  245.3670 C.3     1  UNL1        0.1156
      5 C         186.4290  220.8790  244.7490 C.2     1  UNL1        0.3649
      6 O         185.2090  220.8660  245.0430 O.co2   1  UNL1       -0.2457
      7 O         186.8810  220.0380  243.9380 O.co2   1  UNL1       -0.2457
@<TRIPOS>BOND
     1     2     1    1
     2     3     2    1
     3     4     3    1
     4     5     4    1
     5     6     5   ar
     6     7     5   ar
