@<TRIPOS>MOLECULE
8VQY_ABU_A401
 7 6 0 0 0
SMALL
GASTEIGER

@<TRIPOS>ATOM
      1 N         189.2900  224.7630  244.1690 N.3     1  UNL1       -0.1314
      2 C         188.1630  224.2560  244.9250 C.3     1  UNL1        0.1099
      3 C         187.9750  222.7770  244.6110 C.3     1  UNL1        0.0323
      4 C         186.6450  222.3170  245.1940 C.3     1  UNL1        0.1156
      5 C         186.3470  220.9000  244.7190 C.2     1  UNL1        0.3649
      6 O         187.1660  220.3060  243.9710 O.co2   1  UNL1       -0.2457
      7 O         185.2860  220.3250  245.0740 O.co2   1  UNL1       -0.2457
@<TRIPOS>BOND
     1     2     1    1
     2     3     2    1
     3     4     3    1
     4     5     4    1
     5     6     5   ar
     6     7     5   ar
