@<TRIPOS>MOLECULE
9CT0_ABU_A501
 7 6 0 0 0
SMALL
GASTEIGER

@<TRIPOS>ATOM
      1 N         189.0900  224.7110  242.9500 N.3     1  UNL1       -0.1314
      2 C         188.7180  224.1110  244.2560 C.3     1  UNL1        0.1099
      3 C         187.6820  223.0350  244.0830 C.3     1  UNL1        0.0323
      4 C         187.3980  222.3250  245.3980 C.3     1  UNL1        0.1156
      5 C         186.3510  221.2350  245.2970 C.2     1  UNL1        0.3649
      6 O         186.0960  220.5900  246.3410 O.co2   1  UNL1       -0.2457
      7 O         185.7990  221.0440  244.1950 O.co2   1  UNL1       -0.2457
@<TRIPOS>BOND
     1     2     1    1
     2     3     2    1
     3     4     3    1
     4     5     4    1
     5     6     5   ar
     6     7     5   ar
