@<TRIPOS>MOLECULE
9CX7_ABU_A501
 7 6 0 0 0
SMALL
GASTEIGER

@<TRIPOS>ATOM
      1 N         188.4190  225.1270  243.8150 N.3     1  UNL1       -0.1314
      2 C         188.5360  223.8520  244.5650 C.3     1  UNL1        0.1099
      3 C         187.3650  222.9420  244.2950 C.3     1  UNL1        0.0323
      4 C         187.5000  221.6270  245.0480 C.3     1  UNL1        0.1156
      5 C         186.3460  220.6670  244.8310 C.2     1  UNL1        0.3649
      6 O         186.6320  219.4740  244.5690 O.co2   1  UNL1       -0.2457
      7 O         185.1830  221.1120  244.9230 O.co2   1  UNL1       -0.2457
@<TRIPOS>BOND
     1     2     1    1
     2     3     2    1
     3     4     3    1
     4     5     4    1
     5     6     5   ar
     6     7     5   ar
