@<TRIPOS>MOLECULE
9CXB_ABU_A501
 7 6 0 0 0
SMALL
GASTEIGER

@<TRIPOS>ATOM
      1 N         188.7800  225.1680  244.0700 N.3     1  UNL1       -0.1314
      2 C         188.7070  223.7030  243.8510 C.3     1  UNL1        0.1099
      3 C         187.5630  223.0880  244.6110 C.3     1  UNL1        0.0323
      4 C         187.4570  221.5960  244.3370 C.3     1  UNL1        0.1156
      5 C         186.2610  220.9270  244.9830 C.2     1  UNL1        0.3649
      6 O         185.4200  220.3750  244.2440 O.co2   1  UNL1       -0.2457
      7 O         186.1890  220.9670  246.2350 O.co2   1  UNL1       -0.2457
@<TRIPOS>BOND
     1     2     1    1
     2     3     2    1
     3     4     3    1
     4     5     4    1
     5     6     5   ar
     6     7     5   ar
