@<TRIPOS>MOLECULE
9CXD_ABU_A501
 7 6 0 0 0
SMALL
GASTEIGER

@<TRIPOS>ATOM
      1 N         189.1650  225.4400  244.5620 N.3     1  UNL1       -0.1314
      2 C         188.5180  224.2630  243.9350 C.3     1  UNL1        0.1099
      3 C         187.8260  223.3910  244.9500 C.3     1  UNL1        0.0323
      4 C         187.2050  222.1770  244.2800 C.3     1  UNL1        0.1156
      5 C         186.3120  221.3220  245.1550 C.2     1  UNL1        0.3649
      6 O         185.2170  220.9430  244.6920 O.co2   1  UNL1       -0.2457
      7 O         186.7280  221.0460  246.3010 O.co2   1  UNL1       -0.2457
@<TRIPOS>BOND
     1     2     1    1
     2     3     2    1
     3     4     3    1
     4     5     4    1
     5     6     5   ar
     6     7     5   ar
