@<TRIPOS>MOLECULE
9FAJ_ABU_A3907
 7 6 0 0 0
SMALL
GASTEIGER

@<TRIPOS>ATOM
      1 N         188.5780  224.9180  244.1550 N.3     1  UNL1       -0.1314
      2 C         188.8060  223.4940  244.3220 C.3     1  UNL1        0.1099
      3 C         187.4760  222.7700  244.5130 C.3     1  UNL1        0.0323
      4 C         187.7450  221.2930  244.7870 C.3     1  UNL1        0.1156
      5 C         186.4250  220.5340  244.9030 C.2     1  UNL1        0.3649
      6 O         185.3440  221.0920  244.5800 O.co2   1  UNL1       -0.2457
      7 O         186.4180  219.3480  245.3210 O.co2   1  UNL1       -0.2457
@<TRIPOS>BOND
     1     2     1    1
     2     3     2    1
     3     4     3    1
     4     5     4    1
     5     6     5   ar
     6     7     5   ar
