@<TRIPOS>MOLECULE
9FFL_ABU_E501
 7 6 0 0 0
SMALL
GASTEIGER

@<TRIPOS>ATOM
      1 N         188.9480  225.0040  244.5360 N.3     1  UNL1       -0.1314
      2 C         188.9220  223.5220  244.5250 C.3     1  UNL1        0.1099
      3 C         187.5150  222.9980  244.5430 C.3     1  UNL1        0.0323
      4 C         187.4870  221.4790  244.5310 C.3     1  UNL1        0.1156
      5 C         186.0930  220.8890  244.5540 C.2     1  UNL1        0.3649
      6 O         185.9940  219.6400  244.5420 O.co2   1  UNL1       -0.2457
      7 O         185.1220  221.6700  244.5800 O.co2   1  UNL1       -0.2457
@<TRIPOS>BOND
     1     2     1    1
     2     3     2    1
     3     4     3    1
     4     5     4    1
     5     6     5   ar
     6     7     5   ar
