@<TRIPOS>MOLECULE
9FFN_ABU_B501
 7 6 0 0 0
SMALL
GASTEIGER

@<TRIPOS>ATOM
      1 N         189.1910  225.3290  243.8930 N.3     1  UNL1       -0.1314
      2 C         189.2050  223.9070  244.3170 C.3     1  UNL1        0.1099
      3 C         187.8170  223.3250  244.3520 C.3     1  UNL1        0.0323
      4 C         187.8420  221.8550  244.7450 C.3     1  UNL1        0.1156
      5 C         186.4810  221.1870  244.7430 C.2     1  UNL1        0.3649
      6 O         186.4330  219.9730  244.4340 O.co2   1  UNL1       -0.2457
      7 O         185.4870  221.8780  245.0450 O.co2   1  UNL1       -0.2457
@<TRIPOS>BOND
     1     2     1    1
     2     3     2    1
     3     4     3    1
     4     5     4    1
     5     6     5   ar
     6     7     5   ar
