@<TRIPOS>MOLECULE
9FFR_ABU_B501
 7 6 0 0 0
SMALL
GASTEIGER

@<TRIPOS>ATOM
      1 N         189.2890  225.2050  243.4480 N.3     1  UNL1       -0.1314
      2 C         189.1810  224.0190  244.3320 C.3     1  UNL1        0.1099
      3 C         187.8700  223.3040  244.1340 C.3     1  UNL1        0.0323
      4 C         187.7620  222.0840  245.0360 C.3     1  UNL1        0.1156
      5 C         186.4590  221.3220  244.8980 C.2     1  UNL1        0.3649
      6 O         185.5890  221.7730  244.1300 O.co2   1  UNL1       -0.2457
      7 O         186.3340  220.2740  245.5730 O.co2   1  UNL1       -0.2457
@<TRIPOS>BOND
     1     2     1    1
     2     3     2    1
     3     4     3    1
     4     5     4    1
     5     6     5   ar
     6     7     5   ar
