@<TRIPOS>MOLECULE
9FFS_ABU_A501
 7 6 0 0 0
SMALL
GASTEIGER

@<TRIPOS>ATOM
      1 N         188.7750  224.9390  244.2900 N.3     1  UNL1       -0.1314
      2 C         188.7840  223.4740  244.5240 C.3     1  UNL1        0.1099
      3 C         187.3880  222.9040  244.5440 C.3     1  UNL1        0.0323
      4 C         187.4060  221.3970  244.7610 C.3     1  UNL1        0.1156
      5 C         186.0580  220.7260  244.5880 C.2     1  UNL1        0.3649
      6 O         186.0540  219.5410  244.1740 O.co2   1  UNL1       -0.2457
      7 O         185.0330  221.3810  244.8620 O.co2   1  UNL1       -0.2457
@<TRIPOS>BOND
     1     2     1    1
     2     3     2    1
     3     4     3    1
     4     5     4    1
     5     6     5   ar
     6     7     5   ar
