@<TRIPOS>MOLECULE
9FFT_ABU_B501
 7 6 0 0 0
SMALL
GASTEIGER

@<TRIPOS>ATOM
      1 N         189.2010  225.0210  243.3900 N.3     1  UNL1       -0.1314
      2 C         189.0470  223.9010  244.3520 C.3     1  UNL1        0.1099
      3 C         187.7700  223.1320  244.1120 C.3     1  UNL1        0.0323
      4 C         187.6300  221.9710  245.0870 C.3     1  UNL1        0.1156
      5 C         186.4780  221.0320  244.7800 C.2     1  UNL1        0.3649
      6 O         186.7350  220.0110  244.0980 O.co2   1  UNL1       -0.2457
      7 O         185.3470  221.3210  245.2190 O.co2   1  UNL1       -0.2457
@<TRIPOS>BOND
     1     2     1    1
     2     3     2    1
     3     4     3    1
     4     5     4    1
     5     6     5   ar
     6     7     5   ar
