@<TRIPOS>MOLECULE
9FFW_ABU_A501
 7 6 0 0 0
SMALL
GASTEIGER

@<TRIPOS>ATOM
      1 N         189.2990  224.7810  243.4700 N.3     1  UNL1       -0.1314
      2 C         188.4090  224.2070  244.5090 C.3     1  UNL1        0.1099
      3 C         187.9610  222.8120  244.1530 C.3     1  UNL1        0.0323
      4 C         187.0680  222.2270  245.2380 C.3     1  UNL1        0.1156
      5 C         186.5700  220.8230  244.9550 C.2     1  UNL1        0.3649
      6 O         185.5730  220.6860  244.2160 O.co2   1  UNL1       -0.2457
      7 O         187.1940  219.8730  245.4870 O.co2   1  UNL1       -0.2457
@<TRIPOS>BOND
     1     2     1    1
     2     3     2    1
     3     4     3    1
     4     5     4    1
     5     6     5   ar
     6     7     5   ar
