@<TRIPOS>MOLECULE
9FG0_ABU_B501
 7 6 0 0 0
SMALL
GASTEIGER

@<TRIPOS>ATOM
      1 N         188.4260  225.0340  244.1120 N.3     1  UNL1       -0.1314
      2 C         188.7200  223.6230  244.3180 C.3     1  UNL1        0.1099
      3 C         187.4630  222.8510  244.6840 C.3     1  UNL1        0.0323
      4 C         187.7170  221.3580  244.7960 C.3     1  UNL1        0.1156
      5 C         186.4640  220.4750  244.9110 C.2     1  UNL1        0.3649
      6 O         185.3540  221.0400  244.9200 O.co2   1  UNL1       -0.2457
      7 O         186.6680  219.2470  244.9870 O.co2   1  UNL1       -0.2457
@<TRIPOS>BOND
     1     2     1    1
     2     3     2    1
     3     4     3    1
     4     5     4    1
     5     6     5   ar
     6     7     5   ar
