@<TRIPOS>MOLECULE
9FG1_ABU_B501
 7 6 0 0 0
SMALL
GASTEIGER

@<TRIPOS>ATOM
      1 N         189.1950  224.9220  243.4820 N.3     1  UNL1       -0.1314
      2 C         188.9670  223.8290  244.4590 C.3     1  UNL1        0.1099
      3 C         187.7380  223.0270  244.1250 C.3     1  UNL1        0.0323
      4 C         187.5740  221.8410  245.0640 C.3     1  UNL1        0.1156
      5 C         186.3650  220.9760  244.7710 C.2     1  UNL1        0.3649
      6 O         185.2490  221.5260  244.6940 O.co2   1  UNL1       -0.2457
      7 O         186.5600  219.7460  244.6270 O.co2   1  UNL1       -0.2457
@<TRIPOS>BOND
     1     2     1    1
     2     3     2    1
     3     4     3    1
     4     5     4    1
     5     6     5   ar
     6     7     5   ar
