@<TRIPOS>MOLECULE
9FG3_ABU_D501
 7 6 0 0 0
SMALL
GASTEIGER

@<TRIPOS>ATOM
      1 N         188.9180  225.0500  243.6750 N.3     1  UNL1       -0.1314
      2 C         188.8840  223.8510  244.5490 C.3     1  UNL1        0.1099
      3 C         187.6480  223.0240  244.3080 C.3     1  UNL1        0.0323
      4 C         187.6560  221.7560  245.1490 C.3     1  UNL1        0.1156
      5 C         186.4720  220.8370  244.9150 C.2     1  UNL1        0.3649
      6 O         186.5400  219.6650  245.3370 O.co2   1  UNL1       -0.2457
      7 O         185.4850  221.3160  244.3070 O.co2   1  UNL1       -0.2457
@<TRIPOS>BOND
     1     2     1    1
     2     3     2    1
     3     4     3    1
     4     5     4    1
     5     6     5   ar
     6     7     5   ar
