@<TRIPOS>MOLECULE
9FG5_ABU_C501
 7 6 0 0 0
SMALL
GASTEIGER

@<TRIPOS>ATOM
      1 N         189.4580  224.9690  242.8700 N.3     1  UNL1       -0.1314
      2 C         189.2190  224.0790  244.0330 C.3     1  UNL1        0.1099
      3 C         187.9330  223.3110  243.8740 C.3     1  UNL1        0.0323
      4 C         187.7260  222.3380  245.0240 C.3     1  UNL1        0.1156
      5 C         186.4440  221.5330  244.9360 C.2     1  UNL1        0.3649
      6 O         185.4270  222.0880  244.4700 O.co2   1  UNL1       -0.2457
      7 O         186.4800  220.3470  245.3430 O.co2   1  UNL1       -0.2457
@<TRIPOS>BOND
     1     2     1    1
     2     3     2    1
     3     4     3    1
     4     5     4    1
     5     6     5   ar
     6     7     5   ar
