@<TRIPOS>MOLECULE
9FG6_ABU_C501
 7 6 0 0 0
SMALL
GASTEIGER

@<TRIPOS>ATOM
      1 N         189.6960  224.8540  243.4960 N.3     1  UNL1       -0.1314
      2 C         188.3410  224.4000  243.8960 C.3     1  UNL1        0.1099
      3 C         188.3700  223.0080  244.4740 C.3     1  UNL1        0.0323
      4 C         186.9730  222.5360  244.8500 C.3     1  UNL1        0.1156
      5 C         186.9190  221.1450  245.4530 C.2     1  UNL1        0.3649
      6 O         186.0060  220.3810  245.0550 O.co2   1  UNL1       -0.2457
      7 O         187.7780  220.8370  246.3060 O.co2   1  UNL1       -0.2457
@<TRIPOS>BOND
     1     2     1    1
     2     3     2    1
     3     4     3    1
     4     5     4    1
     5     6     5   ar
     6     7     5   ar
