@<TRIPOS>MOLECULE
9FG7_ABU_E501
 7 6 0 0 0
SMALL
GASTEIGER

@<TRIPOS>ATOM
      1 N         188.8870  225.2700  244.5990 N.3     1  UNL1       -0.1314
      2 C         188.9930  223.7900  244.6230 C.3     1  UNL1        0.1099
      3 C         187.6370  223.1340  244.6380 C.3     1  UNL1        0.0323
      4 C         187.7600  221.6200  244.6780 C.3     1  UNL1        0.1156
      5 C         186.4370  220.8810  244.6380 C.2     1  UNL1        0.3649
      6 O         185.3930  221.5720  244.5770 O.co2   1  UNL1       -0.2457
      7 O         186.4580  219.6340  244.6660 O.co2   1  UNL1       -0.2457
@<TRIPOS>BOND
     1     2     1    1
     2     3     2    1
     3     4     3    1
     4     5     4    1
     5     6     5   ar
     6     7     5   ar
