@<TRIPOS>MOLECULE
9FG8_ABU_B501
 7 6 0 0 0
SMALL
GASTEIGER

@<TRIPOS>ATOM
      1 N         189.3930  224.8180  243.4400 N.3     1  UNL1       -0.1314
      2 C         188.4840  224.2730  244.4790 C.3     1  UNL1        0.1099
      3 C         188.0540  222.8630  244.1590 C.3     1  UNL1        0.0323
      4 C         187.1130  222.3140  245.2230 C.3     1  UNL1        0.1156
      5 C         186.6010  220.9130  244.9460 C.2     1  UNL1        0.3649
      6 O         185.4640  220.7880  244.4430 O.co2   1  UNL1       -0.2457
      7 O         187.3550  219.9550  245.2430 O.co2   1  UNL1       -0.2457
@<TRIPOS>BOND
     1     2     1    1
     2     3     2    1
     3     4     3    1
     4     5     4    1
     5     6     5   ar
     6     7     5   ar
