@<TRIPOS>MOLECULE
9FGG_ABU_B1601
 7 6 0 0 0
SMALL
GASTEIGER

@<TRIPOS>ATOM
      1 N         188.7670  225.1250  243.8190 N.3     1  UNL1       -0.1314
      2 C         188.8190  223.8240  244.4690 C.3     1  UNL1        0.1099
      3 C         187.5870  222.9860  244.2010 C.3     1  UNL1        0.0323
      4 C         187.6390  221.6280  244.8820 C.3     1  UNL1        0.1156
      5 C         186.4360  220.7680  244.6360 C.2     1  UNL1        0.3649
      6 O         185.4720  221.1290  243.9330 O.co2   1  UNL1       -0.2457
      7 O         186.4960  219.6610  245.2040 O.co2   1  UNL1       -0.2457
@<TRIPOS>BOND
     1     2     1    1
     2     3     2    1
     3     4     3    1
     4     5     4    1
     5     6     5   ar
     6     7     5   ar
