@<TRIPOS>MOLECULE
9FGH_ABU_B1601
 7 6 0 0 0
SMALL
GASTEIGER

@<TRIPOS>ATOM
      1 N         188.7870  224.7810  244.5590 N.3     1  UNL1       -0.1314
      2 C         188.8200  223.3230  244.6720 C.3     1  UNL1        0.1099
      3 C         187.4320  222.7170  244.6840 C.3     1  UNL1        0.0323
      4 C         187.4490  221.2020  244.8010 C.3     1  UNL1        0.1156
      5 C         186.0860  220.5750  244.8100 C.2     1  UNL1        0.3649
      6 O         186.1160  219.3330  244.9060 O.co2   1  UNL1       -0.2457
      7 O         185.0310  221.2350  244.7310 O.co2   1  UNL1       -0.2457
@<TRIPOS>BOND
     1     2     1    1
     2     3     2    1
     3     4     3    1
     4     5     4    1
     5     6     5   ar
     6     7     5   ar
