@<TRIPOS>MOLECULE
7QND_EI7_E501
 10 11 0 0 0
SMALL
GASTEIGER

@<TRIPOS>ATOM
      1 N         188.0250  223.3400  244.8470 N.3     1  UNL1       -0.2096
      2 C         186.7430  222.2680  242.7090 C.ar    1  UNL1        0.0743
      3 C         188.6340  223.6230  243.5460 C.3     1  UNL1        0.0941
      4 C         187.7260  221.9140  244.9790 C.3     1  UNL1        0.1554
      5 N         185.1870  220.6040  242.6500 N.ar    1  UNL1       -0.0347
      6 C         185.7040  221.6930  241.8310 C.ar    1  UNL1        0.3121
      7 O         185.3800  222.0620  240.7040 O.2     1  UNL1       -0.2623
      8 C         186.7920  221.5860  243.8640 C.ar    1  UNL1        0.1712
      9 C         187.6400  223.4370  242.4100 C.3     1  UNL1        0.0531
     10 O         185.8760  220.5780  243.8720 O.2     1  UNL1       -0.3536
@<TRIPOS>BOND
     1     3     1    1
     2     4     1    1
     3     6     5   ar
     4     6     2   ar
     5     7     6    2
     6     8     4    1
     7     8     2   ar
     8     9     2    1
     9     9     3    1
    10    10     5   ar
    11    10     8   ar
