@<TRIPOS>MOLECULE
4XNU_41U_A605
 20 21 0 0 0
SMALL
GASTEIGER

@<TRIPOS>ATOM
      1 C         128.9430  125.2980  134.8730 C.3     1  UNL1        0.1075
      2 O         128.3720  131.3830  131.6650 O.3     1  UNL1       -0.4684
      3 C         130.7890  126.9750  135.1470 C.3     1  UNL1        0.0928
      4 C         131.1360  128.0690  134.1510 C.3     1  UNL1        0.0670
      5 C         131.5680  130.8150  134.7200 C.ar    1  UNL1       -0.0008
      6 C         131.8400  131.9830  135.4230 C.ar    1  UNL1       -0.0002
      7 C         130.8330  132.6230  136.1340 C.ar    1  UNL1       -0.0000
      8 C         129.5490  132.0930  136.1420 C.ar    1  UNL1       -0.0002
      9 O         129.6440  129.2250  132.6120 O.3     1  UNL1       -0.4717
     10 C         131.5930  131.7460  129.9630 C.ar    1  UNL1        0.0033
     11 C         132.2630  130.6290  130.4500 C.ar    1  UNL1        0.0033
     12 C         131.6220  129.7740  131.3390 C.ar    1  UNL1        0.0401
     13 N         130.2370  125.8150  134.4780 N.3     1  UNL1       -0.2164
     14 C         130.3190  130.0430  131.7460 C.ar    1  UNL1        0.1725
     15 C         130.2880  132.0080  130.3650 C.ar    1  UNL1        0.0400
     16 C         129.2770  130.9260  135.4410 C.ar    1  UNL1       -0.0008
     17 C         130.2820  130.2890  134.7240 C.ar    1  UNL1        0.0172
     18 C         129.9680  129.0350  133.9940 C.3     1  UNL1        0.1897
     19 C         127.3690  131.7140  130.7100 C.3     1  UNL1        0.2526
     20 C         129.6560  131.1480  131.2540 C.ar    1  UNL1        0.1724
@<TRIPOS>BOND
     1     4     3    1
     2     6     5   ar
     3     7     6   ar
     4     8     7   ar
     5    11    10   ar
     6    12    11   ar
     7    13     1    1
     8    13     3    1
     9    14     9    1
    10    14    12   ar
    11    15    10   ar
    12    16     8   ar
    13    17    16   ar
    14    17     5   ar
    15    18    17    1
    16    18     9    1
    17    18     4    1
    18    19     2    1
    19    20    14   ar
    20    20    15   ar
    21    20     2    1
