@<TRIPOS>MOLECULE
8WTY_XEF_A701
 28 32 0 0 0
SMALL
GASTEIGER

@<TRIPOS>ATOM
      1 C         129.1860  129.2580  131.2120 C.ar    1  UNL1        0.1400
      2 C         128.1750  123.1480  130.9280 C.3     1  UNL1        0.0445
      3 C         126.9960  122.2160  130.4940 C.ar    1  UNL1       -0.0104
      4 C         127.6520  124.2390  131.8710 C.3     1  UNL1        0.0769
      5 C         129.9200  126.8110  130.9180 C.3     1  UNL1        0.1095
      6 C         127.9850  126.1460  132.8130 C.3     1  UNL1        0.0939
      7 C         128.9660  125.6220  130.8020 C.3     1  UNL1        0.0939
      8 C         128.8760  127.3860  132.9790 C.3     1  UNL1        0.1095
      9 C         130.2690  130.0390  130.3310 C.ar    1  UNL1        0.0396
     10 C         125.2740  121.3540  128.6330 C.ar    1  UNL1        0.0021
     11 C         126.4520  122.2860  129.0630 C.ar    1  UNL1       -0.0059
     12 C         124.6730  120.3810  129.6250 C.ar    1  UNL1        0.0707
     13 C         126.3720  121.2130  131.5090 C.ar    1  UNL1        0.0550
     14 C         124.5440  121.1970  127.3310 C.3     1  UNL1        0.1147
     15 C         129.7640  131.3650  130.0520 C.ar    1  UNL1        0.0502
     16 C         125.2160  120.3020  131.0710 C.ar    1  UNL1        0.0274
     17 C         123.4810  120.1200  127.5130 C.2     1  UNL1        0.2500
     18 C         131.6720  129.5770  129.7920 C.ar    1  UNL1        0.0033
     19 C         130.6110  132.3510  129.2130 C.ar    1  UNL1        0.0080
     20 C         132.5030  130.5250  128.9760 C.ar    1  UNL1        0.0001
     21 C         131.9760  131.9150  128.6790 C.ar    1  UNL1        0.0006
     22 N         128.5300  125.1630  132.0330 N.3     1  UNL1       -0.2695
     23 N         129.3260  127.8820  131.6920 N.pl3   1  UNL1       -0.2899
     24 N         128.0650  130.1400  131.4320 N.ar    1  UNL1       -0.1943
     25 N         123.5660  119.6230  128.9290 N.am    1  UNL1       -0.1792
     26 O         122.7250  119.7430  126.6920 O.2     1  UNL1       -0.2726
     27 S         128.3710  131.4870  130.7240 S.2     1  UNL1        0.0144
     28 CL        126.9940  121.1170  133.1810 Cl      1  UNL1       -0.0825
@<TRIPOS>BOND
     1     3     2    1
     2     4     2    1
     3     7     5    1
     4     8     6    1
     5     9     1   ar
     6    11    10   ar
     7    11     3   ar
     8    12    10   ar
     9    13     3   ar
    10    14    10    1
    11    15     9   ar
    12    16    12   ar
    13    16    13   ar
    14    17    14    1
    15    18     9   ar
    16    19    15   ar
    17    20    18   ar
    18    21    19   ar
    19    21    20   ar
    20    22     4    1
    21    22     7    1
    22    22     6    1
    23    23     8    1
    24    23     5    1
    25    23     1    1
    26    24     1   ar
    27    25    17   am
    28    25    12    1
    29    26    17    2
    30    27    24   ar
    31    27    15   ar
    32    28    13    1
