@<TRIPOS>MOLECULE
8Y90_A1LX6_A701
 19 21 0 0 0
SMALL
GASTEIGER

@<TRIPOS>ATOM
      1 C         129.9650  130.8930  136.8920 C.ar    1  UNL1       -0.0003
      2 C         128.4260  128.0740  134.7390 C.3     1  UNL1        0.0990
      3 C         131.5360  130.5340  131.0110 C.ar    1  UNL1       -0.0016
      4 C         129.8260  131.8040  129.8690 C.ar    1  UNL1       -0.0000
      5 C         127.9160  125.9780  134.4400 C.3     1  UNL1        0.0900
      6 C         130.0390  126.3100  134.5140 C.3     1  UNL1        0.1049
      7 C         131.1350  126.7280  133.4850 C.3     1  UNL1        0.1602
      8 C         131.0140  129.0700  133.0380 C.3     1  UNL1        0.1595
      9 C         130.5460  129.6280  134.3910 C.ar    1  UNL1        0.0061
     10 C         131.3650  130.6930  134.9320 C.ar    1  UNL1       -0.0019
     11 C         131.0710  131.3100  136.1510 C.ar    1  UNL1       -0.0003
     12 C         129.1730  129.8590  136.3910 C.ar    1  UNL1       -0.0031
     13 C         129.4590  129.2060  135.1290 C.ar    1  UNL1       -0.0075
     14 C         130.5780  130.0460  131.9100 C.ar    1  UNL1        0.0087
     15 C         131.1640  131.4150  129.9850 C.ar    1  UNL1       -0.0002
     16 C         128.8500  131.3090  130.7740 C.ar    1  UNL1       -0.0002
     17 C         129.2200  130.4410  131.7810 C.ar    1  UNL1       -0.0016
     18 N         128.8220  126.8330  134.1800 N.3     1  UNL1       -0.2656
     19 O         130.6880  127.7560  132.6450 O.3     1  UNL1       -0.3460
@<TRIPOS>BOND
     1     7     6    1
     2     9     8    1
     3    10     9   ar
     4    11     1   ar
     5    11    10   ar
     6    12     1   ar
     7    13     9   ar
     8    13     2    1
     9    13    12   ar
    10     8    14    1
    11    14     3   ar
    12    15     4   ar
    13    15     3   ar
    14    16     4   ar
    15    17    14   ar
    16    17    16   ar
    17    18     6    1
    18    18     5    1
    19    18     2    1
    20    19     8    1
    21    19     7    1
