@<TRIPOS>MOLECULE
8Y90_A1LX6_A701
 19 21 0 0 0
SMALL
GASTEIGER

@<TRIPOS>ATOM
      1 C         130.0700  131.1020  137.4030 C.ar    1  UNL1       -0.0003
      2 C         128.5230  128.2050  135.3610 C.3     1  UNL1        0.0990
      3 C         131.5810  130.5560  131.5200 C.ar    1  UNL1       -0.0016
      4 C         129.8520  131.7800  130.3550 C.ar    1  UNL1       -0.0000
      5 C         128.0210  126.0990  135.1360 C.3     1  UNL1        0.0900
      6 C         130.1430  126.4430  135.1760 C.3     1  UNL1        0.1049
      7 C         131.2260  126.8320  134.1220 C.3     1  UNL1        0.1602
      8 C         131.0880  129.1570  133.6000 C.3     1  UNL1        0.1595
      9 C         130.6310  129.7570  134.9390 C.ar    1  UNL1        0.0061
     10 C         131.4500  130.8440  135.4360 C.ar    1  UNL1       -0.0019
     11 C         131.1660  131.4990  136.6370 C.ar    1  UNL1       -0.0003
     12 C         129.2790  130.0480  136.9440 C.ar    1  UNL1       -0.0031
     13 C         129.5540  129.3550  135.7020 C.ar    1  UNL1       -0.0075
     14 C         130.6350  130.0940  132.4450 C.ar    1  UNL1        0.0087
     15 C         131.1930  131.4010  130.4700 C.ar    1  UNL1       -0.0002
     16 C         128.8890  131.3100  131.2870 C.ar    1  UNL1       -0.0002
     17 C         129.2740  130.4770  132.3180 C.ar    1  UNL1       -0.0016
     18 N         128.9200  126.9490  134.8380 N.3     1  UNL1       -0.2656
     19 O         130.7650  127.8300  133.2530 O.3     1  UNL1       -0.3460
@<TRIPOS>BOND
     1     7     6    1
     2     9     8    1
     3    10     9   ar
     4    11     1   ar
     5    11    10   ar
     6    12     1   ar
     7    13     9   ar
     8    13     2    1
     9    13    12   ar
    10     8    14    1
    11    14     3   ar
    12    15     4   ar
    13    15     3   ar
    14    16     4   ar
    15    17    14   ar
    16    17    16   ar
    17    18     6    1
    18    18     5    1
    19    18     2    1
    20    19     8    1
    21    19     7    1
