@<TRIPOS>MOLECULE
8Y93_TP0_A701
 21 23 0 0 0
SMALL
GASTEIGER

@<TRIPOS>ATOM
      1 N         129.4250  126.1380  134.4010 N.3     1  UNL1       -0.2700
      2 C         130.3190  130.3330  132.5310 C.2     1  UNL1       -0.0048
      3 C         128.2240  131.5970  133.1420 C.ar    1  UNL1       -0.0218
      4 C         130.0160  131.8960  130.4890 C.ar    1  UNL1       -0.0218
      5 C         129.4150  131.0870  133.5460 C.ar    1  UNL1       -0.0043
      6 C         130.7670  131.0500  131.2530 C.ar    1  UNL1       -0.0043
      7 C         130.8440  129.1020  132.6640 C.2     1  UNL1       -0.0247
      8 C         127.3730  132.3190  134.0030 C.ar    1  UNL1       -0.0043
      9 C         130.6120  132.5040  129.3600 C.ar    1  UNL1       -0.0043
     10 C         129.8390  131.3090  134.8820 C.ar    1  UNL1       -0.0003
     11 C         132.1090  130.8070  130.9040 C.ar    1  UNL1       -0.0003
     12 C         129.2720  127.4210  133.7760 C.3     1  UNL1        0.0769
     13 C         127.7820  132.5200  135.3130 C.ar    1  UNL1       -0.0003
     14 C         131.9210  132.2470  129.0050 C.ar    1  UNL1       -0.0003
     15 C         129.0110  132.0140  135.7510 C.ar    1  UNL1       -0.0000
     16 C         132.6750  131.3990  129.7890 C.ar    1  UNL1       -0.0000
     17 C         128.9560  126.1960  135.7660 C.3     1  UNL1        0.0897
     18 C         130.8340  126.1080  134.5020 C.3     1  UNL1        0.0897
     19 C         127.7260  131.4000  131.6980 C.3     1  UNL1        0.0310
     20 C         128.5440  132.2730  130.7560 C.3     1  UNL1        0.0310
     21 C         130.6350  128.1180  133.8370 C.3     1  UNL1        0.0433
@<TRIPOS>BOND
     1     5     2    1
     2     5     3   ar
     3     6     2    1
     4     6     4   ar
     5     7     2    2
     6     8     3   ar
     7     9     4   ar
     8    10     5   ar
     9    11     6   ar
    10    12     1    1
    11    13     8   ar
    12    14     9   ar
    13    15    13   ar
    14    15    10   ar
    15    16    14   ar
    16    16    11   ar
    17    17     1    1
    18    18     1    1
    19    19     3    1
    20    20     4    1
    21    20    19    1
    22    21    12    1
    23    21     7    1
