@<TRIPOS>MOLECULE
8ZP2_A1LX4_A701
 40 41 0 0 0
SMALL
GASTEIGER

@<TRIPOS>ATOM
      1  C10      130.4930  127.8970  133.9770 C.3   701  A1L701      0.0010
      2  N12      130.0180  125.5260  133.9510 N.3   701  A1L701     -0.3188
      3  C13      128.6040  125.3330  133.7120 C.3   701  A1L701     -0.0158
      4  C15      129.6650  130.8950  134.2620 C.ar  701  A1L701     -0.0551
      5  C17      130.6680  132.5430  135.6840 C.ar  701  A1L701     -0.0617
      6  C01      128.4240  131.1310  131.0220 C.3   701  A1L701     -0.0362
      7  C02      129.8790  131.1100  130.5610 C.ar  701  A1L701     -0.0088
      8  C03      130.3140  132.0550  129.6480 C.ar  701  A1L701     -0.0554
      9  C04      131.6290  132.0480  129.2160 C.ar  701  A1L701     -0.0613
     10  C05      132.5100  131.1030  129.7070 C.ar  701  A1L701     -0.0583
     11  C06      132.0770  130.1590  130.6220 C.ar  701  A1L701     -0.0196
     12  C07      130.7620  130.1600  131.0570 C.ar  701  A1L701      0.1243
     13  O08      130.3120  129.2070  131.9830 O.3   701  A1L701     -0.4839
     14  C09      131.0410  129.0750  133.1750 C.3   701  A1L701      0.1263
     15  C11      130.4850  126.6290  133.1350 C.3   701  A1L701     -0.0007
     16  C14      130.9060  130.3130  134.0580 C.ar  701  A1L701     -0.0073
     17  C16      129.5470  132.0100  135.0710 C.ar  701  A1L701     -0.0614
     18  C18      131.9070  131.9600  135.4860 C.ar  701  A1L701     -0.0614
     19  C19      132.0250  130.8440  134.6760 C.ar  701  A1L701     -0.0551
     20  H1       129.4820  128.1190  134.2930 H     701  A1L701      0.0317
     21  H2       131.1150  127.7420  134.8500 H     701  A1L701      0.0317
     22  H4       130.5150  124.6930  133.7050 H     701  A1L701      0.1216
     23  H5       128.1970  124.6540  134.4510 H     701  A1L701      0.0388
     24  H6       128.0990  126.2880  133.7810 H     701  A1L701      0.0388
     25  H7       128.4600  124.9190  132.7240 H     701  A1L701      0.0388
     26  H8       128.7870  130.4780  133.7840 H     701  A1L701      0.0621
     27  H9       130.5760  133.4170  136.3160 H     701  A1L701      0.0618
     28  H10      127.7940  131.4760  130.2100 H     701  A1L701      0.0279
     29  H11      128.1220  130.1320  131.3110 H     701  A1L701      0.0279
     30  H12      128.3220  131.7980  131.8680 H     701  A1L701      0.0279
     31  H13      129.6220  132.7950  129.2640 H     701  A1L701      0.0621
     32  H14      131.9690  132.7860  128.5010 H     701  A1L701      0.0618
     33  H15      133.5390  131.0980  129.3720 H     701  A1L701      0.0619
     34  H16      132.7700  129.4210  131.0030 H     701  A1L701      0.0654
     35  H17      132.0870  128.8960  132.9580 H     701  A1L701      0.0785
     36  H18      129.8260  126.7580  132.2860 H     701  A1L701      0.0425
     37  H19      131.4890  126.4260  132.7890 H     701  A1L701      0.0425
     38  H20      128.5780  132.4680  135.2250 H     701  A1L701      0.0618
     39  H21      132.7840  132.3770  135.9640 H     701  A1L701      0.0618
     40  H22      132.9950  130.3870  134.5220 H     701  A1L701      0.0621
@<TRIPOS>BOND
     1    32     9    1
     2     9     8   ar
     3     9    10   ar
     4    31     8    1
     5    33    10    1
     6     8     7   ar
     7    10    11   ar
     8    28     6    1
     9     7     6    1
    10     7    12   ar
    11    11    34    1
    12    11    12   ar
    13     6    29    1
    14     6    30    1
    15    12    13    1
    16    13    14    1
    17    36    15    1
    18    25     3    1
    19    37    15    1
    20    35    14    1
    21    15     2    1
    22    15     1    1
    23    14     1    1
    24    14    16    1
    25    22     2    1
    26     3    24    1
    27     3     2    1
    28     3    23    1
    29    26     4    1
    30     1    20    1
    31     1    21    1
    32    16     4   ar
    33    16    19   ar
    34     4    17   ar
    35    40    19    1
    36    19    18   ar
    37    17    38    1
    38    17     5   ar
    39    18     5   ar
    40    18    39    1
    41     5    27    1
