@<TRIPOS>MOLECULE
9KDH_A1D5S_B709
 33 36 0 0 0
SMALL
GASTEIGER

@<TRIPOS>ATOM
      1 C         130.1440  123.1720  129.2280 C.3     1  UNL1        0.1047
      2 C         128.2370  125.0290  131.9320 C.3     1  UNL1        0.0897
      3 C         129.0260  126.6420  130.2710 C.3     1  UNL1        0.0897
      4 C         129.0250  127.2720  132.6580 C.3     1  UNL1        0.0725
      5 C         130.3360  130.3300  130.9210 C.ar    1  UNL1       -0.0221
      6 C         131.5680  130.3080  130.2880 C.ar    1  UNL1       -0.0043
      7 C         131.8140  131.1140  129.1950 C.ar    1  UNL1       -0.0003
      8 C         129.6110  131.9810  129.3360 C.ar    1  UNL1       -0.0003
      9 C         128.0330  123.2850  125.0370 C.ar    1  UNL1        0.0089
     10 C         126.0320  124.6060  124.7790 C.ar    1  UNL1        0.0294
     11 C         128.4080  118.3140  125.8100 C.ar    1  UNL1        0.1401
     12 C         129.6300  118.7890  126.1970 C.ar    1  UNL1        0.0294
     13 C         129.8210  120.1590  126.2250 C.ar    1  UNL1        0.0007
     14 C         128.8010  121.0310  125.8690 C.ar    1  UNL1        0.0089
     15 C         127.5800  120.4970  125.4830 C.ar    1  UNL1        0.0007
     16 C         127.3750  119.1320  125.4510 C.ar    1  UNL1        0.0294
     17 C         129.0050  122.5300  125.9180 C.3     1  UNL1        0.1598
     18 O         128.8690  122.9710  127.2680 O.3     1  UNL1       -0.3459
     19 C         130.0590  123.5520  127.7920 C.3     1  UNL1        0.1602
     20 N         129.6980  124.2970  130.1120 N.3     1  UNL1       -0.2682
     21 C         128.5100  123.9200  130.9330 C.3     1  UNL1        0.0897
     22 N         129.1850  126.1540  131.6720 N.3     1  UNL1       -0.2703
     23 C         129.4040  125.5260  129.3180 C.3     1  UNL1        0.0897
     24 C         128.8290  128.6120  131.9850 C.3     1  UNL1        0.0220
     25 C         130.0720  129.4680  132.1290 C.3     1  UNL1        0.0278
     26 C         130.8360  131.9490  128.7190 C.ar    1  UNL1       -0.0000
     27 C         129.3590  131.1770  130.4290 C.ar    1  UNL1       -0.0043
     28 C         126.9300  123.9290  125.5800 C.ar    1  UNL1        0.0007
     29 C         126.2570  124.6290  123.4340 C.ar    1  UNL1        0.1401
     30 C         127.3250  124.0130  122.8500 C.ar    1  UNL1        0.0294
     31 C         128.2150  123.3380  123.6630 C.ar    1  UNL1        0.0007
     32 F         128.2030  116.9720  125.8060 F       1  UNL1       -0.2042
     33 F         125.3850  125.2940  122.6420 F       1  UNL1       -0.2042
@<TRIPOS>BOND
     1     6     5   ar
     2     7     6   ar
     3    12    11   ar
     4    13    12   ar
     5    14    13   ar
     6    15    14   ar
     7    16    11   ar
     8    16    15   ar
     9    17     9    1
    10    17    14    1
    11    17    18    1
    12    19    18    1
    13    19     1    1
    14    20     1    1
    15    21    20    1
    16    21     2    1
    17    22     2    1
    18    22     3    1
    19    22     4    1
    20    23    20    1
    21    23     3    1
    22    24     4    1
    23    25    24    1
    24    25     5    1
    25    26     8   ar
    26    26     7   ar
    27    27     5   ar
    28    27     8   ar
    29    28    10   ar
    30    28     9   ar
    31    29    10   ar
    32    30    29   ar
    33    31    30   ar
    34    31     9   ar
    35    32    11    1
    36    33    29    1
