@<TRIPOS>MOLECULE
4EY5_HUP_A604
 18 20 0 0 0
SMALL
GASTEIGER

@<TRIPOS>ATOM
      1 C          95.2600   81.3200  -10.0230 C.ar    1  UNL1        0.2790
      2 O          96.1880   81.1350  -10.8160 O.2     1  UNL1       -0.2652
      3 N          93.9780   80.8070  -10.3340 N.ar    1  UNL1       -0.2125
      4 C          95.3460   82.0290   -8.7590 C.ar    1  UNL1        0.0623
      5 C          94.2720   82.1740   -7.9560 C.ar    1  UNL1        0.0035
      6 C          93.0020   81.6260   -8.3090 C.ar    1  UNL1        0.0111
      7 C          92.8860   80.9490   -9.5000 C.ar    1  UNL1        0.0605
      8 C          91.6180   80.3260   -9.9840 C.3     1  UNL1        0.0540
      9 C          90.4140   80.7500   -9.1300 C.3     1  UNL1        0.0468
     10 C          89.9580   82.1090   -9.4880 C.2     1  UNL1       -0.0304
     11 C          89.3850   78.8510   -7.1080 C.3     1  UNL1        0.0301
     12 C          90.5700   79.7090   -6.8760 C.2     1  UNL1       -0.0323
     13 C          90.8160   80.7450   -7.6750 C.2     1  UNL1       -0.0247
     14 C          91.8320   81.8220   -7.3520 C.3     1  UNL1        0.1155
     15 N          92.2830   81.7300   -5.9640 N.3     1  UNL1       -0.1254
     16 C          91.2010   83.2110   -7.6300 C.3     1  UNL1        0.0474
     17 C          90.3100   83.1890   -8.8060 C.2     1  UNL1       -0.0458
     18 C          89.7620   84.5070   -9.2540 C.3     1  UNL1        0.0261
@<TRIPOS>BOND
     1     2     1    2
     2     3     1   ar
     3     4     1   ar
     4     5     4   ar
     5     6     5   ar
     6     7     6   ar
     7     7     3   ar
     8     8     7    1
     9     9     8    1
    10    10     9    1
    11    12    11    1
    12    13    12    2
    13    13     9    1
    14    14    13    1
    15    14     6    1
    16    14    15    1
    17    16    14    1
    18    17    16    1
    19    17    10    2
    20    18    17    1
