@<TRIPOS>MOLECULE
4M0E_1YL_B605
 21 24 0 0 0
SMALL
GASTEIGER

@<TRIPOS>ATOM
      1 C          90.3300   91.5150    0.8220 C.3     1  UNL1        0.0310
      2 C          89.0380   91.3460   -0.1040 C.ar    1  UNL1       -0.0218
      3 C          87.9740   92.3460   -0.1010 C.ar    1  UNL1       -0.0043
      4 C          86.8030   92.1690   -0.9570 C.ar    1  UNL1       -0.0003
      5 C          86.6910   90.9840   -1.8150 C.ar    1  UNL1        0.0001
      6 C          87.7560   89.9680   -1.8050 C.ar    1  UNL1        0.0030
      7 C          88.9300   90.1690   -0.9530 C.ar    1  UNL1       -0.0039
      8 C          90.0230   89.1940   -0.9010 C.ar    1  UNL1       -0.0002
      9 C          89.9580   87.9990   -1.7270 C.ar    1  UNL1        0.0031
     10 C          88.7970   87.8090   -2.5900 C.ar    1  UNL1        0.0370
     11 C          87.6790   88.7720   -2.6430 C.ar    1  UNL1        0.0451
     12 C          86.5260   88.5070   -3.5630 C.2     1  UNL1        0.2340
     13 O          85.5390   89.2920   -3.6730 O.2     1  UNL1       -0.2832
     14 C          86.5000   87.3000   -4.3830 C.2     1  UNL1        0.2332
     15 O          85.5170   87.0500   -5.1520 O.2     1  UNL1       -0.2834
     16 C          87.6760   86.2940   -4.2900 C.2     1  UNL1        0.0572
     17 C          88.7600   86.5350   -3.4510 C.2     1  UNL1        0.1378
     18 O          89.7630   85.4250   -3.5420 O.2     1  UNL1       -0.4753
     19 C          89.0380   84.2820   -4.1930 C.3     1  UNL1        0.2098
     20 C          87.8840   84.9170   -5.0940 C.3     1  UNL1        0.0723
     21 C          88.3350   85.2180   -6.6240 C.3     1  UNL1        0.0088
@<TRIPOS>BOND
     1     2     1    1
     2     3     2   ar
     3     4     3   ar
     4     5     4   ar
     5     6     5   ar
     6     7     6   ar
     7     7     2   ar
     8     8     7   ar
     9     9     8   ar
    10    10     9   ar
    11    11    10   ar
    12    11     6   ar
    13    12    11    1
    14    13    12    2
    15    14    12    1
    16    15    14    2
    17    16    14    1
    18    17    16    2
    19    17    10    1
    20    18    17    1
    21    19    18    1
    22    20    19    1
    23    20    16    1
    24    20    21    1
