@<TRIPOS>MOLECULE
5HF6_EFS_B605
 6 5 0 0 0
SMALL
GASTEIGER

@<TRIPOS>ATOM
      1  C12       85.7150   84.4920  -12.4710 C.3   605  EFS605      0.0352
      2  C11       86.8370   84.5180  -11.4270 C.3   605  EFS605      0.1531
      3  O2        87.9880   84.7190  -12.0120 O.3   605  EFS605     -0.2749
      4  P         89.1480   83.3510  -12.2000 P.3   605  EFS605      0.5410
      5  O4        89.1910   82.7070  -10.8580 O.2   605  EFS605     -0.2272
      6  O3        90.4160   84.0700  -12.6790 O.2   605  EFS605     -0.2272
@<TRIPOS>BOND
     1     6     4    2
     2     1     2    1
     3     4     3    1
     4     4     5    2
     5     3     2    1
