@<TRIPOS>MOLECULE
6CQZ_VX_B601
 6 5 0 0 0
SMALL
GASTEIGER

@<TRIPOS>ATOM
      1  P1        89.0620   84.0050  -12.2650 P.3   601  VX601       0.2205
      2  O1        90.4790   84.5270  -12.2560 O.3   601  VX601      -0.1774
      3  O2        88.8210   83.0510  -10.9420 O.3   601  VX601      -0.3173
      4  C1        87.8740   85.4360  -12.2240 C.3   601  VX601       0.0904
      5  C2        89.7850   83.0610   -9.9280 C.3   601  VX601       0.1487
      6  C3        89.7160   84.3870   -9.1730 C.3   601  VX601       0.0351
@<TRIPOS>BOND
     1     1     2    1
     2     1     4    1
     3     1     3    1
     4     3     5    1
     5     5     6    1
