@<TRIPOS>MOLECULE
6NTK_L0S_B605
 12 11 0 0 0
SMALL
GASTEIGER

@<TRIPOS>ATOM
      1  C13       87.6270   85.3190  -11.3100 C.3   605  L0S605      0.1850
      2  C01       89.9760   80.1410   -7.3970 C.3   605  L0S605      0.0551
      3  C02       91.0910   80.9990   -7.9900 C.3   605  L0S605      0.2021
      4  C04       91.4550   79.9770  -10.2570 C.3   605  L0S605      0.2021
      5  C05       92.9670   80.0890  -10.4390 C.3   605  L0S605      0.0551
      6  C06       90.3430   82.2220  -10.0540 C.2   605  L0S605      0.3021
      7  C07       89.8260   83.3680   -9.1880 C.3   605  L0S605      0.1297
      8  N03       90.9630   81.0660   -9.4340 N.pl3 605  L0S605     -0.1942
      9  N08       90.2320   82.2790  -11.2970 N.2   605  L0S605     -0.0061
     10  O11       90.4240   84.7720  -11.9650 O.3   605  L0S605     -0.1269
     11  O12       88.1160   84.0110  -11.2220 O.3   605  L0S605     -0.2786
     12  P09       89.5060   83.6370  -12.0250 P.3   605  L0S605      0.4747
@<TRIPOS>BOND
     1    12    10    1
     2    12     9    1
     3    12    11    1
     4     1    11    1
     5     9     6    2
     6     5     4    1
     7     4     8    1
     8     6     8    1
     9     6     7    1
    10     8     3    1
    11     3     2    1
