@<TRIPOS>MOLECULE
6ZWE_QRH_A602
 41 45 0 0 0
SMALL
GASTEIGER

@<TRIPOS>ATOM
      1 C          85.5950   87.6120   -4.7990 C.2     1  UNL1        0.2649
      2 C          86.7720   87.1830   -5.6640 C.2     1  UNL1        0.0595
      3 O          84.5220   87.1810   -5.0760 O.2     1  UNL1       -0.2684
      4 C          87.2950   85.9670   -5.3740 C.2     1  UNL1        0.0047
      5 C          88.3570   85.0620   -5.8910 C.2     1  UNL1        0.0001
      6 C          89.6500   84.7980   -6.0430 C.2     1  UNL1        0.0001
      7 C          90.2390   83.5870   -6.7790 C.ar    1  UNL1        0.0032
      8 C          90.2010   83.4420   -8.1950 C.ar    1  UNL1        0.0402
      9 C          90.7200   82.3270   -8.8410 C.ar    1  UNL1        0.1764
     10 C          91.5980   80.7940  -10.2980 C.3     1  UNL1        0.4294
     11 C          91.3110   81.2690   -8.1040 C.ar    1  UNL1        0.1764
     12 C          91.3580   81.3690   -6.7320 C.ar    1  UNL1        0.0402
     13 C          90.8240   82.5140   -6.0940 C.ar    1  UNL1        0.0033
     14 C          87.1350   89.0120   -3.4170 C.3     1  UNL1        0.1155
     15 C          87.8730   87.9620   -2.5280 C.3     1  UNL1        0.0234
     16 C          89.3470   87.6080   -2.9010 C.3     1  UNL1        0.0018
     17 C          90.3840   87.4130   -1.7270 C.3     1  UNL1        0.0004
     18 C          90.3890   88.5020   -0.5350 C.3     1  UNL1        0.0053
     19 C          89.7340   89.9590   -0.6770 C.3     1  UNL1        0.0292
     20 C          87.6390   89.5590    1.6350 C.ar    1  UNL1       -0.0019
     21 C          86.2600   89.7510    1.9160 C.ar    1  UNL1        0.0002
     22 C          85.4100   88.8790    2.6300 C.ar    1  UNL1        0.0000
     23 C          85.8940   87.6820    3.1480 C.ar    1  UNL1        0.0000
     24 C          87.2460   87.4180    2.9130 C.ar    1  UNL1        0.0000
     25 C          88.0650   88.3230    2.1900 C.ar    1  UNL1        0.0002
     26 C          87.5680   91.9240   -0.2420 C.ar    1  UNL1       -0.0019
     27 C          86.3270   91.5580   -0.8330 C.ar    1  UNL1        0.0002
     28 C          85.4560   92.4230   -1.5310 C.ar    1  UNL1        0.0000
     29 C          85.7720   93.7650   -1.7020 C.ar    1  UNL1        0.0000
     30 C          86.9800   94.1870   -1.1450 C.ar    1  UNL1        0.0000
     31 C          87.8220   93.2940   -0.4510 C.ar    1  UNL1        0.0002
     32 C          89.8840   91.6210    1.7550 C.ar    1  UNL1       -0.0019
     33 C          90.0260   91.4260    3.1440 C.ar    1  UNL1        0.0002
     34 C          90.9740   92.0680    3.9670 C.ar    1  UNL1        0.0000
     35 C          91.8930   92.9760    3.4410 C.ar    1  UNL1        0.0000
     36 C          91.8140   93.2060    2.0690 C.ar    1  UNL1        0.0000
     37 C          90.8540   92.5440    1.2850 C.ar    1  UNL1        0.0002
     38 N          85.8260   88.5120   -3.7450 N.am    1  UNL1       -0.2017
     39 O          90.8010   81.9790  -10.1760 O.3     1  UNL1       -0.4346
     40 O          91.7430   80.2960   -8.9680 O.3     1  UNL1       -0.4346
     41 P          88.6790   90.7880    0.6630 P.3     1  UNL1       -0.0305
@<TRIPOS>BOND
     1     2     1    1
     2     3     1    2
     3     4     2    2
     4     5     4    1
     5     6     5    2
     6     7     6    1
     7     8     7   ar
     8     9     8   ar
     9    11     9   ar
    10    12    11   ar
    11    13    12   ar
    12    13     7   ar
    13    15    14    1
    14    16    15    1
    15    17    16    1
    16    18    17    1
    17    19    18    1
    18    21    20   ar
    19    22    21   ar
    20    23    22   ar
    21    24    23   ar
    22    25    24   ar
    23    25    20   ar
    24    27    26   ar
    25    28    27   ar
    26    29    28   ar
    27    30    29   ar
    28    31    30   ar
    29    31    26   ar
    30    33    32   ar
    31    34    33   ar
    32    35    34   ar
    33    36    35   ar
    34    37    32   ar
    35    37    36   ar
    36    38    14    1
    37    38     1   am
    38    39    10    1
    39    39     9    1
    40    40    11    1
    41    40    10    1
    42    41    32    1
    43    41    26    1
    44    41    20    1
    45    41    19    1
