@<TRIPOS>MOLECULE
7D9O_H0L_B601
 30 33 0 0 0
SMALL
GASTEIGER

@<TRIPOS>ATOM
      1 N          89.8100   81.6920   -6.0280 N.3     1  UNL1       -0.2688
      2 C          88.5980   87.8570   -2.7900 C.ar    1  UNL1       -0.0158
      3 C          87.3320   88.2290   -3.2130 C.ar    1  UNL1        0.0340
      4 C          86.6660   89.3240   -2.6710 C.ar    1  UNL1        0.0426
      5 C          87.3160   90.0630   -1.7120 C.ar    1  UNL1        0.1725
      6 C          85.4720   91.5240   -1.4790 C.3     1  UNL1        0.2526
      7 C          87.7990   86.0730   -4.1660 C.3     1  UNL1        0.0689
      8 C          87.8120   82.8400   -5.1030 C.3     1  UNL1        0.0500
      9 C          90.5260   80.4310   -6.2620 C.3     1  UNL1        0.0992
     10 C          92.2990   80.9580   -7.9690 C.ar    1  UNL1       -0.0006
     11 C          90.8090   79.8120   -9.9970 C.ar    1  UNL1        0.0294
     12 C          90.3380   79.8240   -8.6950 C.ar    1  UNL1       -0.0006
     13 C          90.5500   82.5680   -5.1240 C.3     1  UNL1        0.0751
     14 C          89.0720   86.6390   -3.5420 C.3     1  UNL1        0.0343
     15 C          90.5040   90.2760    0.0390 C.3     1  UNL1        0.2526
     16 C          87.9060   85.3830   -5.5200 C.3     1  UNL1        0.0407
     17 C          88.5690   84.0150   -5.7020 C.3     1  UNL1        0.1369
     18 C          88.4300   81.5080   -5.5600 C.3     1  UNL1        0.0751
     19 C          91.0790   80.3820   -7.6700 C.ar    1  UNL1       -0.0060
     20 C          92.7900   80.9550   -9.2660 C.ar    1  UNL1        0.0294
     21 C          92.0220   80.3840  -10.2440 C.ar    1  UNL1        0.1401
     22 C          88.6100   89.6960   -1.2740 C.ar    1  UNL1        0.1721
     23 C          90.0260   83.9830   -5.2490 C.3     1  UNL1        0.0500
     24 C          89.2580   88.6040   -1.8260 C.ar    1  UNL1        0.0359
     25 C          86.8580   87.2640   -4.2090 C.2     1  UNL1        0.1728
     26 F          88.5190   83.8810   -7.1190 F       1  UNL1       -0.2399
     27 F          92.4910   80.3740  -11.5240 F       1  UNL1       -0.2042
     28 O          89.1420   90.5150   -0.3140 O.3     1  UNL1       -0.4684
     29 O          86.7990   91.1700   -1.1060 O.3     1  UNL1       -0.4684
     30 O          85.8400   87.3300   -4.8830 O.2     1  UNL1       -0.2913
@<TRIPOS>BOND
     1     3     2   ar
     2     4     3   ar
     3     5     4   ar
     4     9     1    1
     5    12    11   ar
     6    13     1    1
     7    14     7    1
     8    14     2    1
     9     7    16    1
    10    17    16    1
    11    17     8    1
    12    18     1    1
    13    18     8    1
    14    19    12   ar
    15    19    10   ar
    16    19     9    1
    17    20    10   ar
    18    21    11   ar
    19    21    20   ar
    20    22     5   ar
    21    23    17    1
    22    23    13    1
    23    24    22   ar
    24    24     2   ar
    25    25     7    1
    26    25     3    1
    27    17    26    1
    28    27    21    1
    29    28    22    1
    30    28    15    1
    31    29     6    1
    32    29     5    1
    33    30    25    2
