@<TRIPOS>MOLECULE
7D9Q_H1R_B601
 30 33 0 0 0
SMALL
GASTEIGER

@<TRIPOS>ATOM
      1 C          90.5920   90.3220    0.0350 C.3     1  UNL1        0.2526
      2 C          88.6600   89.8700   -1.2500 C.ar    1  UNL1        0.1721
      3 C          89.3210   88.7480   -1.7600 C.ar    1  UNL1        0.0359
      4 C          88.6870   87.9860   -2.7420 C.ar    1  UNL1       -0.0158
      5 C          87.4110   88.3310   -3.2410 C.ar    1  UNL1        0.0340
      6 C          86.7490   89.4590   -2.7320 C.ar    1  UNL1        0.0426
      7 C          87.3680   90.2210   -1.7510 C.ar    1  UNL1        0.1725
      8 C          85.3880   91.4070   -1.8040 C.3     1  UNL1        0.2526
      9 C          86.9910   87.3090   -4.2890 C.2     1  UNL1        0.1728
     10 C          88.1660   86.4270   -4.5950 C.3     1  UNL1        0.0689
     11 C          87.6740   84.9460   -4.4210 C.3     1  UNL1        0.0407
     12 C          88.4610   83.9530   -5.3370 C.3     1  UNL1        0.1369
     13 C          89.8390   83.8660   -4.8820 C.3     1  UNL1        0.0500
     14 C          90.6120   82.5660   -5.1080 C.3     1  UNL1        0.0751
     15 C          90.5810   80.6690   -6.1930 C.3     1  UNL1        0.0992
     16 C          90.8630   80.3460   -7.6910 C.ar    1  UNL1       -0.0039
     17 C          89.9840   79.5490   -8.4340 C.ar    1  UNL1       -0.0028
     18 C          90.2310   79.2770   -9.7850 C.ar    1  UNL1        0.0020
     19 C          91.3630   79.8040  -10.3940 C.ar    1  UNL1        0.0296
     20 C          92.2370   80.6070   -9.6450 C.ar    1  UNL1        0.1399
     21 C          92.0070   80.8800   -8.3090 C.ar    1  UNL1        0.0267
     22 C          88.5670   81.4690   -5.6870 C.3     1  UNL1        0.0751
     23 C          87.7070   82.7020   -5.4280 C.3     1  UNL1        0.0500
     24 C          89.1720   86.7060   -3.4890 C.3     1  UNL1        0.0343
     25 F          88.4360   84.4710   -6.6730 F       1  UNL1       -0.2399
     26 F          93.3510   81.1400  -10.2320 F       1  UNL1       -0.2042
     27 N          89.9450   81.7090   -6.0640 N.3     1  UNL1       -0.2688
     28 O          89.2620   90.6690   -0.2630 O.3     1  UNL1       -0.4684
     29 O          86.6930   91.3620   -1.2500 O.3     1  UNL1       -0.4684
     30 O          85.8940   87.2150   -4.7340 O.2     1  UNL1       -0.2913
@<TRIPOS>BOND
     1     3     2   ar
     2     4     3   ar
     3     5     4   ar
     4     6     5   ar
     5     7     6   ar
     6     7     2   ar
     7     9     5    1
     8    10     9    1
     9    10    11    1
    10    12    11    1
    11    13    12    1
    12    14    13    1
    13    16    15    1
    14    17    16   ar
    15    18    17   ar
    16    19    18   ar
    17    20    19   ar
    18    21    20   ar
    19    21    16   ar
    20    23    22    1
    21    23    12    1
    22    24    10    1
    23    24     4    1
    24    12    25    1
    25    26    20    1
    26    27    22    1
    27    27    15    1
    28    27    14    1
    29    28     2    1
    30    28     1    1
    31    29     8    1
    32    29     7    1
    33    30     9    2
