@<TRIPOS>MOLECULE
8DT7_3VI_B601
 19 20 0 0 0
SMALL
GASTEIGER

@<TRIPOS>ATOM
      1 C          89.0910   85.9260   -3.5400 C.2     1  UNL1        0.1453
      2 C          90.8520   91.5970    4.6460 C.2     1  UNL1        0.1453
      3 C          88.1850   88.0700   -3.0180 C.ar    1  UNL1        0.0777
      4 C          90.2070   87.3530   -1.9180 C.ar    1  UNL1        0.0777
      5 C          89.8370   90.1700    2.9740 C.ar    1  UNL1        0.0777
      6 C          90.6440   92.3650    2.3910 C.ar    1  UNL1        0.0777
      7 C          88.2340   89.2650   -2.3170 C.ar    1  UNL1        0.2959
      8 C          90.2640   88.5560   -1.2100 C.ar    1  UNL1        0.2959
      9 C          89.4240   89.9540    1.6600 C.ar    1  UNL1        0.2959
     10 C          90.2390   92.1580    1.0800 C.ar    1  UNL1        0.2959
     11 C          89.2220   90.8380   -0.7200 C.3     1  UNL1        0.6618
     12 C          89.1700   87.1130   -2.8200 C.ar    1  UNL1        0.0348
     13 C          90.4450   91.3690    3.3370 C.ar    1  UNL1        0.0348
     14 N          88.0690   85.8830   -4.4090 N.2     1  UNL1       -0.0278
     15 N          90.9060   92.8940    4.9870 N.2     1  UNL1       -0.0278
     16 N          89.2580   89.5170   -1.4020 N.ar    1  UNL1       -0.0874
     17 N          89.6380   90.9540    0.6990 N.ar    1  UNL1       -0.0874
     18 O          87.9100   84.6770   -5.2060 O.2     1  UNL1       -0.1431
     19 O          91.3200   93.2160    6.3460 O.2     1  UNL1       -0.1431
@<TRIPOS>UNITY_ATOM_ATTR
16 1
charge 1
17 1
charge 1
@<TRIPOS>BOND
     1     7     3   ar
     2     8     4   ar
     3     9     5   ar
     4    10     6   ar
     5    12     1    1
     6    12     4   ar
     7    12     3   ar
     8    13     6   ar
     9    13     5   ar
    10    13     2    1
    11    14     1    2
    12    15     2    2
    13    16    11    1
    14    16     8   ar
    15    16     7   ar
    16    17    11    1
    17    17    10   ar
    18    17     9   ar
    19    18    14    1
    20    19    15    1
