@<TRIPOS>MOLECULE
2BYS_LOB_B301
 25 27 0 0 0
SMALL
GASTEIGER

@<TRIPOS>ATOM
      1 O         171.1670  124.1320  188.0160 O.2     1  UNL1       -0.2913
      2 C         170.7290  122.9890  188.0610 C.2     1  UNL1        0.1744
      3 C         171.5750  121.9020  188.6870 C.ar    1  UNL1        0.0347
      4 C         172.8520  122.2200  189.1610 C.ar    1  UNL1        0.0028
      5 C         173.6630  121.2470  189.7400 C.ar    1  UNL1        0.0001
      6 C         173.2110  119.9370  189.8560 C.ar    1  UNL1        0.0000
      7 C         171.9430  119.6060  189.3950 C.ar    1  UNL1        0.0001
      8 C         171.1300  120.5830  188.8120 C.ar    1  UNL1        0.0028
      9 C         169.3350  122.7420  187.5160 C.3     1  UNL1        0.0851
     10 C         169.1500  122.8520  185.9930 C.3     1  UNL1        0.0652
     11 C         169.8270  124.0650  185.3890 C.3     1  UNL1        0.0165
     12 C         169.5330  124.0710  183.9160 C.3     1  UNL1        0.0028
     13 C         168.0810  124.4480  183.6960 C.3     1  UNL1        0.0161
     14 C         167.0770  123.7100  184.5890 C.3     1  UNL1        0.0604
     15 N         167.6970  122.9480  185.7260 N.3     1  UNL1       -0.2735
     16 C         167.0500  121.6500  185.9080 C.3     1  UNL1        0.0896
     17 C         166.0190  124.6980  185.1160 C.3     1  UNL1        0.0534
     18 C         164.8000  123.9870  185.7060 C.3     1  UNL1        0.1756
     19 O         165.0240  123.8720  187.1020 O.3     1  UNL1       -0.2183
     20 C         163.4740  124.6460  185.5730 C.ar    1  UNL1        0.0077
     21 C         163.2660  125.9710  185.9160 C.ar    1  UNL1       -0.0018
     22 C         161.9980  126.5320  185.8070 C.ar    1  UNL1       -0.0002
     23 C         160.9170  125.7790  185.3630 C.ar    1  UNL1       -0.0000
     24 C         161.1150  124.4460  185.0350 C.ar    1  UNL1       -0.0002
     25 C         162.3810  123.8850  185.1510 C.ar    1  UNL1       -0.0018
@<TRIPOS>BOND
     1     2     1    2
     2     3     2    1
     3     4     3   ar
     4     5     4   ar
     5     6     5   ar
     6     7     6   ar
     7     8     7   ar
     8     8     3   ar
     9     9     2    1
    10    10     9    1
    11    11    10    1
    12    12    11    1
    13    13    12    1
    14    14    13    1
    15    15    14    1
    16    15    10    1
    17    16    15    1
    18    14    17    1
    19    18    17    1
    20    18    19    1
    21    20    18    1
    22    21    20   ar
    23    22    21   ar
    24    23    22   ar
    25    24    23   ar
    26    25    24   ar
    27    25    20   ar
