@<TRIPOS>MOLECULE
2WNC_TKT_C300
 21 24 0 0 0
SMALL
GASTEIGER

@<TRIPOS>ATOM
      1 C         172.1430  121.3890  183.7880 C.ar    1  UNL1        0.0961
      2 O         171.7670  120.9250  186.1640 O.2     1  UNL1       -0.2448
      3 C         165.7590  123.6330  186.5230 C.3     1  UNL1        0.0896
      4 C         171.4750  121.5180  185.1200 C.2     1  UNL1        0.3427
      5 C         171.8460  121.9170  182.5340 C.ar    1  UNL1        0.1053
      6 O         170.4100  122.4960  185.1180 O.3     1  UNL1       -0.4491
      7 C         167.8200  122.1690  184.2810 C.3     1  UNL1        0.0175
      8 C         168.1380  123.6580  184.0770 C.3     1  UNL1        0.0175
      9 N         167.0710  123.3220  185.9960 N.3     1  UNL1       -0.2738
     10 C         167.9950  124.2920  185.4630 C.3     1  UNL1        0.0611
     11 C         169.2770  124.2230  186.2950 C.3     1  UNL1        0.0596
     12 C         167.5220  121.9690  185.7690 C.3     1  UNL1        0.0611
     13 C         168.7370  121.7710  186.6730 C.3     1  UNL1        0.0596
     14 C         169.8320  122.8020  186.3890 C.3     1  UNL1        0.1718
     15 C         175.6790  119.4360  182.6740 C.ar    1  UNL1        0.0015
     16 C         173.7460  120.7970  182.2250 C.ar    1  UNL1        0.0816
     17 C         173.3940  120.6400  183.6530 C.ar    1  UNL1        0.0254
     18 C         174.1690  119.9150  184.5290 C.ar    1  UNL1        0.0018
     19 C         175.3220  119.3160  184.0250 C.ar    1  UNL1        0.0001
     20 N         172.8020  121.5480  181.6230 N.ar    1  UNL1       -0.2436
     21 C         174.9000  120.1710  181.7700 C.ar    1  UNL1        0.0191
@<TRIPOS>BOND
     1     4     1    1
     2     4     2    2
     3     5     1   ar
     4     6     4    1
     5     8     7    1
     6     9     3    1
     7    10     8    1
     8    10     9    1
     9    11    10    1
    10    12     7    1
    11    12     9    1
    12    13    12    1
    13    14    13    1
    14    14     6    1
    15    14    11    1
    16    17    16   ar
    17    17     1   ar
    18    18    17   ar
    19    19    18   ar
    20    19    15   ar
    21    20    16   ar
    22    20     5   ar
    23    21    16   ar
    24    21    15   ar
