@<TRIPOS>MOLECULE
2X00_GYN_B301
 37 41 0 0 0
SMALL
GASTEIGER

@<TRIPOS>ATOM
      1 O         161.3250  124.2350  179.7100 O.2     1  UNL1       -0.2501
      2 C         162.4970  124.5840  179.6360 C.2     1  UNL1        0.3167
      3 O         163.5680  123.7910  180.1970 O.3     1  UNL1       -0.4480
      4 C         164.7780  124.5390  180.0530 C.3     1  UNL1        0.1871
      5 C         164.3830  125.9470  179.6050 C.3     1  UNL1        0.0590
      6 C         162.9910  125.8310  178.9830 C.3     1  UNL1        0.1030
      7 C         162.0610  127.0220  179.2150 C.3     1  UNL1        0.0118
      8 C         165.5240  124.4730  181.3650 C.2     1  UNL1       -0.0124
      9 C         166.5580  123.6180  181.5180 C.2     1  UNL1       -0.0444
     10 C         167.0740  122.8690  180.3130 C.3     1  UNL1        0.0262
     11 C         167.2500  123.3810  182.8560 C.3     1  UNL1        0.0440
     12 C         166.4720  123.9430  184.0640 C.3     1  UNL1        0.0387
     13 C         165.9090  125.3270  183.7290 C.3     1  UNL1        0.0103
     14 C         165.0320  125.3670  182.4830 C.3     1  UNL1        0.0253
     15 C         167.5160  121.9020  183.0830 C.2     1  UNL1       -0.0281
     16 C         168.7420  121.3400  183.0900 C.2     1  UNL1       -0.0181
     17 C         170.0070  122.1370  182.8380 C.3     1  UNL1        0.0286
     18 C         168.8320  119.8520  183.3350 C.3     1  UNL1        0.1701
     19 O         169.2760  119.2360  182.1160 O.3     1  UNL1       -0.2187
     20 C         169.8300  119.5190  184.4490 C.3     1  UNL1        0.0396
     21 C         169.1960  119.3790  185.8310 C.3     1  UNL1        0.0325
     22 C         169.6800  120.4850  186.7600 C.3     1  UNL1        0.1157
     23 C         169.4550  120.2050  188.2400 C.3     1  UNL1        0.0323
     24 C         170.6240  120.8910  188.9280 C.3     1  UNL1        0.0336
     25 C         171.5270  119.8600  189.6100 C.3     1  UNL1        0.0029
     26 O         171.0790  120.8100  186.6570 O.3     1  UNL1       -0.3547
     27 C         171.3820  121.6020  187.8080 C.3     1  UNL1        0.1331
     28 C         170.9390  123.0460  187.6340 C.2     1  UNL1       -0.0216
     29 C         171.3580  124.0850  188.6440 C.3     1  UNL1        0.0285
     30 C         170.1890  123.4070  186.5670 C.2     1  UNL1       -0.0319
     31 C         169.6890  124.8110  186.3110 C.3     1  UNL1        0.0314
     32 C         168.7630  124.8770  185.0930 C.3     1  UNL1        0.0455
     33 C         167.4030  124.1920  185.2470 C.2     1  UNL1        0.0317
     34 N         167.0180  123.8480  186.4000 N.2     1  UNL1       -0.2790
     35 C         166.2420  122.6760  186.7960 C.3     1  UNL1        0.1247
     36 C         165.0540  122.6190  185.8480 C.3     1  UNL1        0.0266
     37 C         165.3490  122.9340  184.3830 C.3     1  UNL1        0.0079
@<TRIPOS>BOND
     1     2     1    2
     2     3     2    1
     3     4     3    1
     4     5     4    1
     5     6     2    1
     6     6     5    1
     7     6     7    1
     8     4     8    1
     9     9     8    2
    10    10     9    1
    11    11     9    1
    12    12    11    1
    13    12    13    1
    14    14    13    1
    15    14     8    1
    16    11    15    1
    17    16    15    2
    18    17    16    1
    19    18    16    1
    20    18    19    1
    21    20    18    1
    22    21    20    1
    23    22    21    1
    24    23    22    1
    25    24    23    1
    26    24    25    1
    27    26    22    1
    28    27    26    1
    29    27    24    1
    30    27    28    1
    31    29    28    1
    32    30    28    2
    33    31    30    1
    34    32    31    1
    35    33    32    1
    36    33    12    1
    37    34    33    2
    38    35    34    1
    39    36    35    1
    40    37    12    1
    41    37    36    1
