@<TRIPOS>MOLECULE
2XNV_VU3_D301
 23 26 0 0 0
SMALL
GASTEIGER

@<TRIPOS>ATOM
      1 C         166.0100  121.1430  183.4890 C.3     1  UNL1        0.0631
      2 C         167.0690  120.0700  183.4690 C.ar    1  UNL1        0.0604
      3 N         167.3990  119.2300  184.4820 N.ar    1  UNL1       -0.2496
      4 C         168.3510  118.3580  184.0880 C.ar    1  UNL1        0.0809
      5 C         169.0400  117.3190  184.7090 C.ar    1  UNL1        0.0191
      6 C         170.0070  116.6150  183.9800 C.ar    1  UNL1        0.0015
      7 C         170.2500  116.9110  182.6330 C.ar    1  UNL1        0.0001
      8 C         169.5360  117.9400  182.0190 C.ar    1  UNL1        0.0015
      9 C         168.6050  118.6660  182.7660 C.ar    1  UNL1        0.0188
     10 C         165.3440  121.3490  184.8510 C.3     1  UNL1        0.0784
     11 C         169.1110  124.2450  185.0430 C.ar    1  UNL1       -0.0043
     12 C         170.4600  124.2050  184.7260 C.ar    1  UNL1       -0.0003
     13 C         170.8760  123.7710  183.4650 C.ar    1  UNL1       -0.0000
     14 C         169.9510  123.3720  182.5090 C.ar    1  UNL1       -0.0003
     15 C         168.5990  123.4180  182.8220 C.ar    1  UNL1       -0.0043
     16 C         168.1880  123.8990  184.0630 C.ar    1  UNL1       -0.0224
     17 C         166.7580  123.8630  184.3800 C.3     1  UNL1        0.0251
     18 C         165.7160  124.2960  183.3640 C.3     1  UNL1        0.0217
     19 C         166.3440  124.2590  185.7790 C.3     1  UNL1        0.0217
     20 C         165.0780  123.4610  186.0940 C.3     1  UNL1        0.0724
     21 C         164.4960  123.4170  183.6590 C.3     1  UNL1        0.0724
     22 C         167.8120  119.7620  182.3310 C.ar    1  UNL1        0.0162
     23 N         164.6230  122.6490  184.9350 N.3     1  UNL1       -0.2723
@<TRIPOS>BOND
     1     2     1    1
     2     3     2   ar
     3     4     3   ar
     4     5     4   ar
     5     6     5   ar
     6     7     6   ar
     7     8     7   ar
     8     9     4   ar
     9     9     8   ar
    10    10     1    1
    11    12    11   ar
    12    13    12   ar
    13    14    13   ar
    14    15    14   ar
    15    16    15   ar
    16    16    11   ar
    17    17    16    1
    18    18    17    1
    19    19    17    1
    20    20    19    1
    21    21    18    1
    22    22     9   ar
    23    22     2   ar
    24    23    21    1
    25    23    10    1
    26    23    20    1
