@<TRIPOS>MOLECULE
2Y56_V11_D301
 26 29 0 0 0
SMALL
GASTEIGER

@<TRIPOS>ATOM
      1 O         170.8460  120.8260  186.1960 O.2     1  UNL1       -0.2449
      2 C         170.8530  121.2430  185.0440 C.2     1  UNL1        0.3411
      3 C         171.9680  120.8760  184.1080 C.ar    1  UNL1        0.0756
      4 C         172.0080  121.4600  182.8350 C.ar    1  UNL1        0.0064
      5 C         173.0290  121.1510  181.9460 C.ar    1  UNL1        0.0002
      6 C         174.0160  120.2540  182.3320 C.ar    1  UNL1        0.0000
      7 C         173.9860  119.6780  183.6040 C.ar    1  UNL1        0.0002
      8 C         172.9660  119.9860  184.5040 C.ar    1  UNL1        0.0064
      9 O         169.7960  122.1120  184.5260 O.3     1  UNL1       -0.4491
     10 C         169.0940  122.9090  185.4870 C.3     1  UNL1        0.1718
     11 C         167.7900  122.1790  185.8490 C.3     1  UNL1        0.0596
     12 C         166.6310  122.4980  184.9030 C.3     1  UNL1        0.0612
     13 C         167.0440  122.2330  183.4520 C.3     1  UNL1        0.0175
     14 C         167.6140  123.5470  182.9350 C.3     1  UNL1        0.0175
     15 C         167.5530  124.4780  184.1450 C.3     1  UNL1        0.0612
     16 C         168.8550  124.3300  184.9420 C.3     1  UNL1        0.0596
     17 N         166.4550  123.9560  184.9860 N.3     1  UNL1       -0.2726
     18 C         165.1460  124.2810  184.4010 C.3     1  UNL1        0.1099
     19 C         164.0620  124.3350  185.4720 C.3     1  UNL1        0.1901
     20 O         163.5910  123.0220  185.8170 O.3     1  UNL1       -0.2168
     21 C         162.9700  125.1870  184.9390 C.ar    1  UNL1        0.0091
     22 C         162.0490  124.6810  184.0210 C.ar    1  UNL1       -0.0018
     23 C         161.0330  125.4980  183.5080 C.ar    1  UNL1       -0.0002
     24 C         160.9460  126.8330  183.8960 C.ar    1  UNL1       -0.0000
     25 C         161.8790  127.3450  184.7970 C.ar    1  UNL1       -0.0002
     26 C         162.8930  126.5300  185.3060 C.ar    1  UNL1       -0.0018
@<TRIPOS>BOND
     1     2     1    2
     2     3     2    1
     3     4     3   ar
     4     5     4   ar
     5     6     5   ar
     6     7     6   ar
     7     8     7   ar
     8     8     3   ar
     9     9     2    1
    10    10     9    1
    11    11    10    1
    12    12    11    1
    13    13    12    1
    14    14    13    1
    15    15    14    1
    16    16    15    1
    17    16    10    1
    18    17    15    1
    19    17    12    1
    20    18    17    1
    21    19    18    1
    22    19    20    1
    23    21    19    1
    24    22    21   ar
    25    23    22   ar
    26    24    23   ar
    27    25    24   ar
    28    26    21   ar
    29    26    25   ar
