@<TRIPOS>MOLECULE
2Y57_V37_D301
 25 28 0 0 0
SMALL
GASTEIGER

@<TRIPOS>ATOM
      1 O         170.9020  120.9090  185.9450 O.2     1  UNL1       -0.2449
      2 C         170.9090  121.4980  184.8770 C.2     1  UNL1        0.3411
      3 C         171.9490  121.1940  183.8350 C.ar    1  UNL1        0.0756
      4 C         172.0380  121.9950  182.6950 C.ar    1  UNL1        0.0064
      5 C         172.9920  121.7200  181.7140 C.ar    1  UNL1        0.0002
      6 C         173.8660  120.6410  181.8610 C.ar    1  UNL1        0.0000
      7 C         173.7760  119.8450  183.0000 C.ar    1  UNL1        0.0002
      8 C         172.8250  120.1240  183.9910 C.ar    1  UNL1        0.0064
      9 O         169.8920  122.4980  184.5850 O.3     1  UNL1       -0.4491
     10 C         169.1430  122.9450  185.7080 C.3     1  UNL1        0.1718
     11 C         168.9370  124.4540  185.5470 C.3     1  UNL1        0.0596
     12 C         167.7320  124.8320  184.6740 C.3     1  UNL1        0.0611
     13 C         167.8720  124.2130  183.2810 C.3     1  UNL1        0.0175
     14 C         167.2600  122.8270  183.4100 C.3     1  UNL1        0.0175
     15 C         166.7390  122.7550  184.8410 C.3     1  UNL1        0.0611
     16 C         167.8350  122.1530  185.7170 C.3     1  UNL1        0.0596
     17 N         166.5860  124.1530  185.2850 N.3     1  UNL1       -0.2747
     18 C         165.3580  124.7420  184.7520 C.3     1  UNL1        0.0767
     19 C         164.1590  124.2540  185.5540 C.3     1  UNL1        0.0437
     20 C         162.9780  125.0710  185.1010 C.ar    1  UNL1       -0.0208
     21 C         162.0700  124.5580  184.1820 C.ar    1  UNL1       -0.0042
     22 C         160.9930  125.3330  183.7440 C.ar    1  UNL1       -0.0003
     23 C         160.8210  126.6330  184.2040 C.ar    1  UNL1       -0.0000
     24 C         161.7490  127.1430  185.1090 C.ar    1  UNL1       -0.0003
     25 C         162.8280  126.3740  185.5520 C.ar    1  UNL1       -0.0042
@<TRIPOS>BOND
     1     2     1    2
     2     3     2    1
     3     4     3   ar
     4     5     4   ar
     5     6     5   ar
     6     7     6   ar
     7     8     7   ar
     8     8     3   ar
     9     9     2    1
    10    10     9    1
    11    11    10    1
    12    12    11    1
    13    13    12    1
    14    14    13    1
    15    15    14    1
    16    16    15    1
    17    16    10    1
    18    17    15    1
    19    17    12    1
    20    18    17    1
    21    19    18    1
    22    20    19    1
    23    21    20   ar
    24    22    21   ar
    25    23    22   ar
    26    24    23   ar
    27    25    20   ar
    28    25    24   ar
