@<TRIPOS>MOLECULE
2Y58_V38_C301
 27 30 0 0 0
SMALL
GASTEIGER

@<TRIPOS>ATOM
      1 O         170.7040  121.8410  184.2380 O.2     1  UNL1       -0.2449
      2 C         170.3360  122.0970  185.3870 C.2     1  UNL1        0.3411
      3 C         170.9610  121.4140  186.5860 C.ar    1  UNL1        0.0756
      4 C         170.4510  121.6760  187.8720 C.ar    1  UNL1        0.0064
      5 C         171.0140  121.0630  189.0000 C.ar    1  UNL1        0.0002
      6 C         172.0950  120.1840  188.8490 C.ar    1  UNL1        0.0000
      7 C         172.6230  119.9310  187.5750 C.ar    1  UNL1        0.0002
      8 C         172.0660  120.5530  186.4500 C.ar    1  UNL1        0.0064
      9 O         169.2740  123.0620  185.6840 O.3     1  UNL1       -0.4488
     10 C         168.7180  123.8270  184.6250 C.3     1  UNL1        0.1806
     11 C         168.2280  122.9870  183.4370 C.3     1  UNL1        0.0988
     12 C         166.7680  122.5620  183.5310 C.3     1  UNL1        0.0623
     13 C         166.6770  121.7610  184.8280 C.3     1  UNL1        0.0611
     14 C         166.3050  122.7750  185.9040 C.3     1  UNL1        0.0611
     15 C         166.2270  124.1040  185.1530 C.3     1  UNL1        0.0623
     16 C         167.6280  124.7020  185.2390 C.3     1  UNL1        0.0988
     17 N         165.9110  123.7490  183.7510 N.4     1  UNL1        0.2957
     18 C         164.4940  123.3760  183.6900 C.3     1  UNL1        0.1700
     19 C         166.0720  124.8720  182.7810 C.3     1  UNL1        0.1461
     20 C         165.9170  124.4950  181.2960 C.3     1  UNL1        0.2289
     21 O         167.0500  125.0350  180.6140 O.3     1  UNL1       -0.2119
     22 C         164.6800  124.9880  180.5970 C.ar    1  UNL1        0.0136
     23 C         163.4760  124.2520  180.6360 C.ar    1  UNL1       -0.0016
     24 C         162.3200  124.6770  179.9530 C.ar    1  UNL1       -0.0002
     25 C         162.3610  125.8470  179.1850 C.ar    1  UNL1       -0.0000
     26 C         163.5510  126.5870  179.1190 C.ar    1  UNL1       -0.0002
     27 C         164.6980  126.1660  179.8190 C.ar    1  UNL1       -0.0016
@<TRIPOS>UNITY_ATOM_ATTR
17 1
charge 1
@<TRIPOS>BOND
     1     2     1    2
     2     3     2    1
     3     4     3   ar
     4     5     4   ar
     5     6     5   ar
     6     7     6   ar
     7     8     7   ar
     8     8     3   ar
     9     9     2    1
    10    10     9    1
    11    11    10    1
    12    12    11    1
    13    13    12    1
    14    14    13    1
    15    15    14    1
    16    16    15    1
    17    16    10    1
    18    17    15    1
    19    17    12    1
    20    17    18    1
    21    19    17    1
    22    20    19    1
    23    20    21    1
    24    22    20    1
    25    23    22   ar
    26    24    23   ar
    27    25    24   ar
    28    26    25   ar
    29    27    22   ar
    30    27    26   ar
