@<TRIPOS>MOLECULE
3SIO_MLK_D260
 49 56 0 0 0
SMALL
GASTEIGER

@<TRIPOS>ATOM
      1 O         163.7980  123.5890  178.8600 O.2     1  UNL1       -0.2741
      2 C         163.2270  124.6640  178.9060 C.2     1  UNL1        0.2356
      3 C         163.5720  125.8620  178.0440 C.3     1  UNL1        0.0951
      4 C         162.4640  126.8780  178.3750 C.3     1  UNL1        0.0865
      5 C         163.0600  128.2370  178.7380 C.3     1  UNL1        0.0101
      6 C         161.7660  126.2500  179.5620 C.2     1  UNL1        0.2351
      7 O         160.9500  126.8240  180.2500 O.2     1  UNL1       -0.2741
      8 N         162.1950  124.9810  179.7190 N.am    1  UNL1       -0.2079
      9 C         161.6220  124.0640  180.6260 C.ar    1  UNL1        0.0668
     10 C         160.4320  123.4180  180.2820 C.ar    1  UNL1        0.0155
     11 C         159.8430  122.5090  181.1490 C.ar    1  UNL1        0.0013
     12 C         160.4230  122.2140  182.3770 C.ar    1  UNL1        0.0003
     13 C         161.5960  122.8350  182.7380 C.ar    1  UNL1        0.0077
     14 C         162.2110  123.7580  181.8720 C.ar    1  UNL1        0.0897
     15 C         163.4640  124.4010  182.3200 C.2     1  UNL1        0.3424
     16 O         163.8820  125.4000  181.7570 O.2     1  UNL1       -0.2448
     17 O         164.1400  123.8810  183.3690 O.3     1  UNL1       -0.4454
     18 C         165.4220  124.4470  183.7560 C.3     1  UNL1        0.2100
     19 C         166.0640  123.5240  184.7870 C.3     1  UNL1        0.0577
     20 C         165.0520  123.3340  185.9220 C.3     1  UNL1        0.0075
     21 C         164.9200  121.8630  186.3540 C.3     1  UNL1        0.0298
     22 C         166.2770  121.1830  186.4550 C.3     1  UNL1        0.1166
     23 O         167.0140  121.6980  187.5810 O.3     1  UNL1       -0.3535
     24 C         166.3350  121.2810  188.7740 C.3     1  UNL1        0.1740
     25 C         167.0960  121.2800  185.1870 C.3     1  UNL1        0.0436
     26 C         166.4330  122.1680  184.1110 C.3     1  UNL1        0.0382
     27 C         168.4540  122.0390  185.3430 C.3     1  UNL1        0.0926
     28 N         168.2210  123.3180  186.0130 N.3     1  UNL1       -0.2715
     29 C         169.4770  123.9970  186.3270 C.3     1  UNL1        0.0722
     30 C         170.3110  123.1550  187.2980 C.3     1  UNL1        0.0188
     31 C         167.3100  124.2260  185.3510 C.3     1  UNL1        0.0757
     32 C         167.3230  119.8510  184.6920 C.3     1  UNL1        0.0086
     33 C         168.0070  118.9450  185.7320 C.3     1  UNL1        0.0051
     34 C         169.1470  118.2160  184.9660 C.3     1  UNL1        0.0546
     35 C         170.4330  119.0620  185.1590 C.3     1  UNL1        0.1201
     36 O         171.6180  118.2740  184.9870 O.3     1  UNL1       -0.3534
     37 C         172.1380  118.0650  186.3030 C.3     1  UNL1        0.1740
     38 C         170.4960  120.3540  184.3490 C.3     1  UNL1        0.0627
     39 C         168.1820  119.7480  183.4050 C.3     1  UNL1        0.0580
     40 C         168.7350  118.2900  183.4750 C.3     1  UNL1        0.1200
     41 O         169.8240  118.0610  182.5820 O.3     1  UNL1       -0.3534
     42 C         169.3350  117.2740  181.4940 C.3     1  UNL1        0.1740
     43 C         169.3530  120.7310  183.4090 C.3     1  UNL1        0.1601
     44 O         169.8810  120.8770  182.0670 O.3     1  UNL1       -0.2228
     45 C         168.8760  122.1470  183.8510 C.3     1  UNL1        0.1900
     46 O         169.8910  123.1310  183.5890 O.3     1  UNL1       -0.2192
     47 C         167.5650  122.5060  183.0980 C.3     1  UNL1        0.1469
     48 O         167.4260  121.8180  181.8450 O.3     1  UNL1       -0.3509
     49 C         166.4010  122.4260  181.0520 C.3     1  UNL1        0.1741
@<TRIPOS>BOND
     1     2     1    2
     2     3     2    1
     3     4     3    1
     4     4     5    1
     5     6     4    1
     6     7     6    2
     7     8     2   am
     8     8     6   am
     9     9     8    1
    10    10     9   ar
    11    11    10   ar
    12    12    11   ar
    13    13    12   ar
    14    14    13   ar
    15    14     9   ar
    16    15    14    1
    17    16    15    2
    18    17    15    1
    19    18    17    1
    20    19    18    1
    21    20    19    1
    22    21    20    1
    23    22    21    1
    24    22    23    1
    25    24    23    1
    26    25    22    1
    27    26    25    1
    28    26    19    1
    29    27    25    1
    30    27    28    1
    31    29    28    1
    32    30    29    1
    33    31    19    1
    34    31    28    1
    35    32    25    1
    36    32    33    1
    37    34    33    1
    38    35    34    1
    39    35    36    1
    40    37    36    1
    41    38    35    1
    42    39    32    1
    43    40    39    1
    44    40    34    1
    45    40    41    1
    46    42    41    1
    47    43    39    1
    48    43    38    1
    49    43    44    1
    50    45    27    1
    51    45    43    1
    52    45    46    1
    53    47    45    1
    54    47    26    1
    55    47    48    1
    56    49    48    1
