@<TRIPOS>MOLECULE
3ZDH_XRS_A301
 14 14 0 0 0
SMALL
GASTEIGER

@<TRIPOS>ATOM
      1 C         170.8170  122.9440  188.4460 C.ar    1  UNL1        0.3008
      2 N         171.7340  123.8310  188.8200 N.ar    1  UNL1       -0.1926
      3 C         172.3600  123.2560  189.9080 C.ar    1  UNL1        0.1223
      4 C         171.7840  122.0320  190.1490 C.ar    1  UNL1        0.1005
      5 N         170.8010  121.8500  189.1960 N.ar    1  UNL1       -0.2784
      6 O         169.9380  123.0240  187.4280 O.3     1  UNL1       -0.4478
      7 C         170.0560  124.1810  186.6120 C.3     1  UNL1        0.2100
      8 C         169.3130  123.9700  185.2770 C.3     1  UNL1        0.0634
      9 C         167.7690  123.8630  185.3490 C.3     1  UNL1        0.0613
     10 N         167.3090  122.8120  186.3160 N.3     1  UNL1       -0.2715
     11 C         167.1960  123.6640  183.9270 C.3     1  UNL1        0.0175
     12 C         167.7110  121.4180  185.9850 C.3     1  UNL1        0.0896
     13 C         165.8710  122.9120  186.6720 C.3     1  UNL1        0.0896
     14 C         169.9230  120.7060  189.0550 C.3     1  UNL1        0.1351
@<TRIPOS>BOND
     1     2     1   ar
     2     3     2   ar
     3     4     3   ar
     4     5     4   ar
     5     5     1   ar
     6     6     1    1
     7     7     6    1
     8     8     7    1
     9     9     8    1
    10    10     9    1
    11     9    11    1
    12    12    10    1
    13    13    10    1
    14    14     5    1
