@<TRIPOS>MOLECULE
4BFQ_083_B301
 27 30 0 0 0
SMALL
GASTEIGER

@<TRIPOS>ATOM
      1 N         167.4790  121.3880  180.4990 N.pl3   1  UNL1        0.2199
      2 C         167.2160  121.2900  181.8220 C.2     1  UNL1        0.4525
      3 C         166.5480  122.4200  182.5120 C.ar    1  UNL1        0.2546
      4 N         166.2310  123.5060  181.7900 N.ar    1  UNL1       -0.2245
      5 C         165.6270  124.5670  182.3700 C.ar    1  UNL1        0.0624
      6 C         165.2880  125.7640  181.4970 C.3     1  UNL1        0.0522
      7 C         165.3300  124.5290  183.7450 C.ar    1  UNL1        0.0295
      8 N         166.2740  122.3320  183.8380 N.ar    1  UNL1       -0.2245
      9 C         165.6680  123.3760  184.4720 C.ar    1  UNL1        0.0624
     10 C         165.3900  123.2570  185.9520 C.3     1  UNL1        0.0522
     11 N         167.5210  120.2630  182.4830 N.2     1  UNL1       -0.0094
     12 C         168.1480  119.1730  181.8810 C.ar    1  UNL1        0.2770
     13 C         168.4640  118.0790  182.6590 C.ar    1  UNL1        0.0621
     14 C         168.1580  118.0700  184.0110 C.ar    1  UNL1        0.0053
     15 C         168.4790  116.9540  184.7610 C.ar    1  UNL1        0.0002
     16 C         169.1040  115.8610  184.1820 C.ar    1  UNL1        0.0000
     17 C         169.4070  115.8780  182.8230 C.ar    1  UNL1        0.0002
     18 C         169.0850  116.9880  182.0630 C.ar    1  UNL1        0.0067
     19 C         169.3930  116.9990  180.7080 C.ar    1  UNL1        0.0209
     20 C         169.0710  118.1190  179.9430 C.ar    1  UNL1        0.1026
     21 N         168.4580  119.1640  180.5520 N.ar    1  UNL1       -0.2026
     22 C         169.3680  118.1520  178.5830 C.ar    1  UNL1        0.0990
     23 N         169.9710  117.0880  177.9990 N.ar    1  UNL1       -0.2423
     24 C         170.2920  117.0580  176.6810 C.ar    1  UNL1        0.0989
     25 C         169.9870  118.1450  175.8680 C.ar    1  UNL1        0.0207
     26 C         169.3670  119.2500  176.4400 C.ar    1  UNL1        0.0032
     27 C         169.0500  119.2610  177.8010 C.ar    1  UNL1        0.0207
@<TRIPOS>BOND
     1     2     1    1
     2     3     2    1
     3     4     3   ar
     4     5     4   ar
     5     6     5    1
     6     7     5   ar
     7     8     3   ar
     8     9     8   ar
     9     9     7   ar
    10    10     9    1
    11    11     2    2
    12    12    11    1
    13    13    12   ar
    14    14    13   ar
    15    15    14   ar
    16    16    15   ar
    17    17    16   ar
    18    18    13   ar
    19    18    17   ar
    20    19    18   ar
    21    20    19   ar
    22    21    12   ar
    23    21    20   ar
    24    22    20    1
    25    23    22   ar
    26    24    23   ar
    27    25    24   ar
    28    26    25   ar
    29    27    26   ar
    30    27    22   ar
