@<TRIPOS>MOLECULE
4WV9_MD4_A301
 43 46 0 0 0
SMALL
GASTEIGER

@<TRIPOS>ATOM
      1  C21      164.1330  126.2920  181.3100 C.3   301  MD4301     -0.1001
      2  N16      165.1330  125.2730  181.6840 N.4   301  MD4301      0.3802
      3  C20      166.0280  125.1270  180.5080 C.3   301  MD4301     -0.1001
      4  C15      164.5260  124.0110  182.1480 C.3   301  MD4301     -0.0738
      5  C14      163.9200  124.3160  183.5120 C.3   301  MD4301     -0.0662
      6  C13      164.7720  125.4670  184.0220 C.3   301  MD4301     -0.0662
      7  C17      165.5910  122.9470  182.3740 C.3   301  MD4301     -0.0422
      8  C19      166.6650  123.4190  183.3640 C.3   301  MD4301      0.0515
      9  C18      167.0460  124.8980  183.2070 C.3   301  MD4301     -0.0422
     10  C12      165.7990  125.7170  182.9150 C.3   301  MD4301     -0.0738
     11  N10      167.8510  122.5640  183.1580 N.ar  301  MD4301     -0.2482
     12  N9       168.6380  122.8810  182.0480 N.ar  301  MD4301     -0.0649
     13  N8       169.6800  121.9440  182.0860 N.ar  301  MD4301     -0.1295
     14  C11      168.3440  121.5340  183.8440 C.ar  301  MD4301      0.0536
     15  C7       169.4910  121.1430  183.1680 C.ar  301  MD4301      0.1127
     16  C5       170.3750  120.0140  183.5420 C.ar  301  MD4301      0.0065
     17  C6       170.3950  119.4840  184.8290 C.ar  301  MD4301     -0.0343
     18  C1       171.2470  118.4150  185.0950 C.ar  301  MD4301      0.0282
     19  C4       171.1850  119.4690  182.5590 C.ar  301  MD4301     -0.0343
     20  C3       172.0130  118.4020  182.8800 C.ar  301  MD4301      0.0282
     21  N2       172.0270  117.9070  184.1270 N.ar  301  MD4301     -0.2632
     22 H212      163.4730  126.4540  182.1230 H     301  MD4301      0.0029
     23 H213      164.6250  127.1990  181.0690 H     301  MD4301      0.0029
     24 H211      163.5830  125.9560  180.4700 H     301  MD4301      0.0029
     25 H201      166.8220  124.4690  180.7490 H     301  MD4301      0.0029
     26 H202      166.4230  126.0730  180.2450 H     301  MD4301      0.0029
     27 H203      165.4790  124.7340  179.6930 H     301  MD4301      0.0029
     28  H15      163.7530  123.6470  181.4560 H     301  MD4301      0.0100
     29 H141      163.9940  123.4510  184.1740 H     301  MD4301      0.0249
     30 H142      162.8750  124.6150  183.4170 H     301  MD4301      0.0249
     31 H132      165.2710  125.1930  184.9550 H     301  MD4301      0.0249
     32 H131      164.1610  126.3550  184.1890 H     301  MD4301      0.0249
     33 H172      165.1190  122.0390  182.7580 H     301  MD4301      0.0270
     34 H171      166.0620  122.6990  181.4210 H     301  MD4301      0.0270
     35  H19      166.2820  123.2700  184.3830 H     301  MD4301      0.0544
     36 H182      167.5190  125.2580  184.1230 H     301  MD4301      0.0270
     37 H181      167.7610  125.0100  182.3880 H     301  MD4301      0.0270
     38  H12      166.0500  126.7870  182.8700 H     301  MD4301      0.0100
     39  H11      167.9280  121.0860  184.7370 H     301  MD4301      0.0849
     40  H6       169.7660  119.8960  185.6070 H     301  MD4301      0.0639
     41  H1       171.2820  117.9920  186.0910 H     301  MD4301      0.0830
     42  H4       171.1730  119.8710  181.5540 H     301  MD4301      0.0639
     43  H3       172.6550  117.9720  182.1220 H     301  MD4301      0.0830
@<TRIPOS>BOND
     1    27     3    1
     2    26     3    1
     3    24     1    1
     4     3    25    1
     5     3     2    1
     6    23     1    1
     7     1     2    1
     8     1    22    1
     9    34     7    1
    10    28     4    1
    11    42    19    1
    12     2     4    1
    13     2    10    1
    14    12    13   ar
    15    12    11   ar
    16    13    15   ar
    17    43    20    1
    18     4     7    1
    19     4     5    1
    20     7    33    1
    21     7     8    1
    22    37     9    1
    23    19    20   ar
    24    19    16   ar
    25    38    10    1
    26    20    21   ar
    27    10     9    1
    28    10     6    1
    29    11     8    1
    30    11    14   ar
    31    15    16    1
    32    15    14   ar
    33     9     8    1
    34     9    36    1
    35     8    35    1
    36    30     5    1
    37     5     6    1
    38     5    29    1
    39    16    17   ar
    40    14    39    1
    41     6    32    1
    42     6    31    1
    43    21    18   ar
    44    17    18   ar
    45    17    40    1
    46    18    41    1
