@<TRIPOS>MOLECULE
4ZK4_TII_E301
 45 47 0 0 0
SMALL
GASTEIGER

@<TRIPOS>ATOM
      1 C         164.6390  124.0500  182.9320 C.3     1  UNL1       -0.0122
      2 N         165.5960  124.7720  182.1130 N.3     1  UNL1       -0.2982
      3 C         165.4090  126.1630  181.8280 C.3     1  UNL1       -0.0008
      4 C         165.5080  126.0820  180.3010 C.3     1  UNL1       -0.0385
      5 C         166.5220  124.9650  180.0190 C.3     1  UNL1       -0.0318
      6 C         166.7390  124.2510  181.3470 C.3     1  UNL1        0.0387
      7 C         168.1190  124.5440  181.9410 C.3     1  UNL1        0.0307
      8 C         166.6910  122.7620  181.2520 C.3     1  UNL1       -0.0172
      9 C         167.3410  122.3510  182.5780 C.3     1  UNL1        0.0140
     10 N         168.2890  123.4290  182.8470 N.pl3   1  UNL1       -0.3268
     11 C         169.2790  123.3190  183.8480 C.ar    1  UNL1        0.0516
     12 C         169.4830  122.0890  184.4610 C.ar    1  UNL1        0.0041
     13 C         170.4710  121.9400  185.4300 C.ar    1  UNL1        0.1406
     14 O         170.6690  120.7200  186.0420 O.3     1  UNL1       -0.4878
     15 C         169.7900  119.5840  185.8670 C.3     1  UNL1        0.0947
     16 C         169.6560  118.7350  187.1210 C.3     1  UNL1       -0.0281
     17 C         170.3680  118.7250  184.7580 C.3     1  UNL1       -0.0281
     18 C         171.2590  123.0440  185.7690 C.ar    1  UNL1        0.0693
     19 N         171.0460  124.2390  185.1690 N.ar    1  UNL1       -0.2578
     20 C         170.1110  124.3730  184.2200 C.ar    1  UNL1        0.0488
     21 H         164.9010  123.0240  182.9570 H       1  UNL1        0.0391
     22 H         164.6520  124.4410  183.9160 H       1  UNL1        0.0391
     23 H         163.6700  124.1570  182.5200 H       1  UNL1        0.0391
     24 H         166.2040  126.7770  182.2550 H       1  UNL1        0.0427
     25 H         164.4290  126.5170  182.1540 H       1  UNL1        0.0427
     26 H         165.8550  127.0310  179.8870 H       1  UNL1        0.0278
     27 H         164.5360  125.8370  179.8660 H       1  UNL1        0.0278
     28 H         167.4610  125.3860  179.6540 H       1  UNL1        0.0284
     29 H         166.1300  124.2720  179.2710 H       1  UNL1        0.0284
     30 H         168.8910  124.5490  181.1700 H       1  UNL1        0.0482
     31 H         168.1240  125.4950  182.4780 H       1  UNL1        0.0482
     32 H         167.2670  122.4000  180.3980 H       1  UNL1        0.0299
     33 H         165.6620  122.4020  181.1860 H       1  UNL1        0.0299
     34 H         167.8570  121.3940  182.4780 H       1  UNL1        0.0464
     35 H         166.5950  122.2800  183.3720 H       1  UNL1        0.0464
     36 H         168.8720  121.2410  184.1800 H       1  UNL1        0.0674
     37 H         168.7910  119.9270  185.5640 H       1  UNL1        0.0727
     38 H         169.3460  119.3450  187.9290 H       1  UNL1        0.0265
     39 H         170.5910  118.2940  187.3510 H       1  UNL1        0.0265
     40 H         168.9370  117.9740  186.9570 H       1  UNL1        0.0265
     41 H         171.3690  118.4740  184.9900 H       1  UNL1        0.0265
     42 H         170.3410  119.2630  183.8450 H       1  UNL1        0.0265
     43 H         169.7950  117.8400  184.6620 H       1  UNL1        0.0265
     44 H         172.0250  122.9490  186.5290 H       1  UNL1        0.0867
     45 H         169.9680  125.3410  183.7570 H       1  UNL1        0.0848
@<TRIPOS>BOND
     1     2     1    1
     2     3     2    1
     3     4     3    1
     4     5     4    1
     5     6     5    1
     6     6     2    1
     7     7     6    1
     8     8     6    1
     9     9     8    1
    10    10     9    1
    11    10     7    1
    12    11    10    1
    13    12    11   ar
    14    13    12   ar
    15    14    13    1
    16    15    14    1
    17    16    15    1
    18    17    15    1
    19    18    13   ar
    20    19    18   ar
    21    20    19   ar
    22    20    11   ar
    23     1    21    1
    24    22     1    1
    25    23     1    1
    26     3    24    1
    27    25     3    1
    28     4    26    1
    29    27     4    1
    30     5    28    1
    31    29     5    1
    32     7    30    1
    33    31     7    1
    34     8    32    1
    35    33     8    1
    36     9    34    1
    37    35     9    1
    38    36    12    1
    39    15    37    1
    40    16    38    1
    41    39    16    1
    42    40    16    1
    43    17    41    1
    44    42    17    1
    45    43    17    1
    46    44    18    1
    47    45    20    1
