@<TRIPOS>MOLECULE
4ZR6_4QW_A301
 32 34 0 0 0
SMALL
GASTEIGER

@<TRIPOS>ATOM
      1 C         168.8920  119.8430  185.6130 C.3     1  UNL1        0.0444
      2 C         170.7620  122.3040  187.8050 C.ar    1  UNL1        0.0183
      3 C         171.9970  122.2580  189.8450 C.ar    1  UNL1       -0.0430
      4 C         166.3480  123.7000  183.5260 C.3     1  UNL1        0.0133
      5 N         166.0010  123.4690  184.8930 N.ar    1  UNL1       -0.3337
      6 C         164.7520  123.3890  185.3900 C.ar    1  UNL1        0.0961
      7 N         164.8080  123.1710  186.7100 N.ar    1  UNL1       -0.2435
      8 C         166.0950  123.1070  187.0580 C.ar    1  UNL1        0.0527
      9 C         166.8540  123.2960  185.9110 C.ar    1  UNL1        0.0613
     10 C         168.3750  123.3170  185.8410 C.2     1  UNL1       -0.0314
     11 C         169.1110  122.1820  185.6910 C.2     1  UNL1       -0.0181
     12 C         168.8120  121.0950  184.7490 C.3     1  UNL1       -0.0060
     13 N         169.8070  120.1490  186.7150 N.2     1  UNL1       -0.2827
     14 C         170.0010  121.5800  186.7240 C.2     1  UNL1        0.0703
     15 C         171.3040  121.5810  188.8570 C.ar    1  UNL1       -0.0497
     16 C         172.1280  123.6320  189.7500 C.ar    1  UNL1        0.0276
     17 N         171.5960  124.3150  188.7210 N.ar    1  UNL1       -0.2626
     18 C         170.9250  123.6750  187.7560 C.ar    1  UNL1        0.0367
     19 H         168.0040  119.6970  185.9880 H       1  UNL1        0.0511
     20 H         169.0310  118.9850  185.1650 H       1  UNL1        0.0511
     21 H         172.3890  121.7740  190.5980 H       1  UNL1        0.0633
     22 H         165.5660  123.5410  182.9600 H       1  UNL1        0.0456
     23 H         167.0680  123.0890  183.2660 H       1  UNL1        0.0456
     24 H         166.6510  124.6310  183.4160 H       1  UNL1        0.0456
     25 H         163.9300  123.4750  184.8680 H       1  UNL1        0.1029
     26 H         166.4420  122.9580  187.9640 H       1  UNL1        0.0851
     27 H         168.8400  124.1770  185.9060 H       1  UNL1        0.0642
     28 H         169.4410  121.0070  184.0100 H       1  UNL1        0.0332
     29 H         167.9780  121.3080  184.2800 H       1  UNL1        0.0332
     30 H         171.1950  120.6100  188.9020 H       1  UNL1        0.0625
     31 H         172.6180  124.1140  190.4410 H       1  UNL1        0.0829
     32 H         170.5400  124.1820  187.0140 H       1  UNL1        0.0836
@<TRIPOS>BOND
     1     5     4    1
     2     6     5   ar
     3     7     6   ar
     4     8     7   ar
     5     9     5   ar
     6     9     8   ar
     7    10     9    1
     8    11    10    2
     9    12     1    1
    10    12    11    1
    11    13     1    1
    12    14    13    2
    13    14    11    1
    14    14     2    1
    15    15     3   ar
    16    15     2   ar
    17    16     3   ar
    18    17    16   ar
    19    18    17   ar
    20    18     2   ar
    21     1    19    1
    22    20     1    1
    23    21     3    1
    24     4    22    1
    25    23     4    1
    26    24     4    1
    27    25     6    1
    28    26     8    1
    29    27    10    1
    30    12    28    1
    31    29    12    1
    32    30    15    1
    33    31    16    1
    34    32    18    1
