@<TRIPOS>MOLECULE
4ZRU_TI9_C302
 25 26 0 0 0
SMALL
GASTEIGER

@<TRIPOS>ATOM
      1  C13      166.7120  121.6060  184.8870 C.3   302  TI9302     -0.0251
      2  C12      167.2020  122.9640  184.4720 C.3   302  TI9302     -0.0381
      3  C11      166.6440  123.8740  185.4940 C.3   302  TI9302     -0.0030
      4  N10      166.2930  123.0770  186.6430 N.3   302  TI9302     -0.3031
      5  C9       166.7460  121.7580  186.3570 C.3   302  TI9302      0.0702
      6  C8       168.1280  121.6730  186.9100 C.1   302  TI9302     -0.0782
      7  C7       169.2200  121.7420  187.3810 C.1   302  TI9302     -0.0632
      8  C5       170.5460  121.9950  188.0160 C.ar  302  TI9302      0.0430
      9  C6       171.4570  120.9760  188.2630 C.ar  302  TI9302     -0.0434
     10  C1       172.6710  121.3360  188.8560 C.ar  302  TI9302     -0.0424
     11  C4       170.8210  123.2920  188.3500 C.ar  302  TI9302      0.0429
     12  N3       171.9830  123.5850  188.9110 N.ar  302  TI9302     -0.2620
     13  C2       172.8920  122.6380  189.1660 C.ar  302  TI9302      0.0276
     14 H131      165.7900  121.4400  184.5630 H     302  TI9302      0.0290
     15 H132      167.3320  120.9020  184.5880 H     302  TI9302      0.0290
     16 H121      166.8650  123.1940  183.5860 H     302  TI9302      0.0278
     17 H122      168.1750  122.9900  184.4880 H     302  TI9302      0.0278
     18 H112      165.8380  124.2900  185.1380 H     302  TI9302      0.0424
     19 H111      167.2900  124.5580  185.7410 H     302  TI9302      0.0424
     20 HN10      165.3840  123.2520  186.7750 H     302  TI9302      0.1231
     21  H14      166.1410  121.1200  186.7910 H     302  TI9302      0.0597
     22  H6       171.2580  120.0420  188.0240 H     302  TI9302      0.0631
     23  H1       173.3450  120.6620  189.0470 H     302  TI9302      0.0633
     24  H4       170.1710  123.9910  188.1740 H     302  TI9302      0.0842
     25  H2       173.7610  122.8980  189.5880 H     302  TI9302      0.0829
@<TRIPOS>BOND
     1    16     2    1
     2     2    17    1
     3     2     1    1
     4     2     3    1
     5    14     1    1
     6    15     1    1
     7     1     5    1
     8    18     3    1
     9     3    19    1
    10     3     4    1
    11     5     4    1
    12     5    21    1
    13     5     6    1
    14     4    20    1
    15     6     7    3
    16     7     8    1
    17     8     9   ar
    18     8    11   ar
    19    22     9    1
    20    24    11    1
    21     9    10   ar
    22    11    12   ar
    23    10    23    1
    24    10    13   ar
    25    12    13   ar
    26    13    25    1
