@<TRIPOS>MOLECULE
5BP0_FN1_E301
 27 28 0 0 0
SMALL
GASTEIGER

@<TRIPOS>ATOM
      1  F13      171.6560  120.6020  189.2570 F     301  FN1301     -0.2039
      2  C4       171.2350  121.7060  188.6450 C.ar  301  FN1301      0.1416
      3  C3       170.3510  121.6180  187.6700 C.ar  301  FN1301     -0.0219
      4  C2       169.8590  122.8540  186.9910 C.ar  301  FN1301     -0.0401
      5  C1       170.3730  124.0590  187.3820 C.ar  301  FN1301      0.0294
      6  N1       171.3480  124.1600  188.4560 N.ar  301  FN1301     -0.2602
      7  C5       171.7720  123.0420  189.0670 C.ar  301  FN1301      0.0627
      8  C6       168.8730  122.6470  185.9070 C.3   301  FN1301     -0.0508
      9  C7       168.4730  123.8440  185.1700 C.3   301  FN1301     -0.0629
     10  C8       167.0400  124.0220  185.2810 C.3   301  FN1301     -0.0692
     11  C9       166.5700  123.1750  186.3930 C.3   301  FN1301     -0.0902
     12  N2       167.6750  122.2170  186.5110 N.4   301  FN1301      0.3824
     13  C10      167.2420  121.1030  185.7480 C.3   301  FN1301     -0.1024
     14  H3       170.0030  120.7450  187.4060 H     301  FN1301      0.0649
     15  H1       170.0640  124.8730  186.9420 H     301  FN1301      0.0832
     16  H5       172.4290  123.0980  189.7870 H     301  FN1301      0.0859
     17  H6       169.3380  121.9730  185.3770 H     301  FN1301      0.0143
     18  H72      168.9250  124.6250  185.5420 H     301  FN1301      0.0252
     19  H71      168.7180  123.7540  184.2290 H     301  FN1301      0.0252
     20  H81      166.6040  123.7570  184.4490 H     301  FN1301      0.0247
     21  H82      166.8400  124.9560  185.4760 H     301  FN1301      0.0247
     22  H91      165.7380  122.7210  186.1590 H     301  FN1301      0.0059
     23  H92      166.4690  123.6970  187.2110 H     301  FN1301      0.0059
     24 H103      167.8970  120.3840  185.8220 H     301  FN1301      0.0024
     25 H102      166.3790  120.7930  186.0840 H     301  FN1301      0.0024
     26 H101      167.1510  121.3650  184.8120 H     301  FN1301      0.0024
     27  H27      167.8120  121.9810  187.3810 H     301  FN1301     -0.0814
@<TRIPOS>BOND
     1    19     9    1
     2    20    10    1
     3    26    13    1
     4     9    10    1
     5     9    18    1
     6     9     8    1
     7    10    21    1
     8    10    11    1
     9    17     8    1
    10    13    24    1
    11    13    25    1
    12    13    12    1
    13     8    12    1
    14     8     4    1
    15    22    11    1
    16    11    12    1
    17    11    23    1
    18    12    27    1
    19    15     5    1
    20     4     5   ar
    21     4     3   ar
    22     5     6   ar
    23    14     3    1
    24     3     2   ar
    25     6     7   ar
    26     2     7   ar
    27     2     1    1
    28     7    16    1
