@<TRIPOS>MOLECULE
5Y2Q_8L3_A301
 23 25 0 0 0
SMALL
GASTEIGER

@<TRIPOS>ATOM
      1 C         166.2410  124.6440  184.7510 C.3     1  UNL1        0.0888
      2 C         165.5730  123.2750  186.6340 C.3     1  UNL1        0.0888
      3 C         166.2630  122.0700  186.0340 C.3     1  UNL1        0.0228
      4 C         167.4460  122.5360  185.2030 C.3     1  UNL1        0.0472
      5 C         168.4830  123.2780  186.0680 C.3     1  UNL1        0.2057
      6 C         170.0310  122.8440  187.8340 C.ar    1  UNL1        0.1576
      7 C         170.6300  121.9900  188.7510 C.ar    1  UNL1        0.0401
      8 C         171.6980  122.3990  189.5470 C.ar    1  UNL1        0.0238
      9 C         172.2020  123.6860  189.4290 C.ar    1  UNL1        0.0991
     10 C         170.5510  124.1270  187.6920 C.ar    1  UNL1        0.1356
     11 C         168.1480  121.3130  184.5900 C.3     1  UNL1        0.0300
     12 C         169.2790  121.4570  183.7750 C.ar    1  UNL1       -0.0212
     13 C         169.1820  121.7670  182.4200 C.ar    1  UNL1       -0.0033
     14 C         170.3240  121.8500  181.6270 C.ar    1  UNL1        0.0119
     15 C         171.5710  121.5960  182.1840 C.ar    1  UNL1        0.0682
     16 C         171.6730  121.2570  183.5380 C.ar    1  UNL1        0.0679
     17 C         170.5240  121.1810  184.3140 C.ar    1  UNL1        0.0080
     18 C         166.9360  123.4590  184.1170 C.3     1  UNL1        0.0228
     19 N         165.0990  124.1790  185.5770 N.3     1  UNL1       -0.2180
     20 N         171.6190  124.5540  188.5090 N.ar    1  UNL1       -0.2391
     21 O         168.9990  122.3740  187.0560 O.3     1  UNL1       -0.4739
     22 CL        172.9330  121.7110  181.1810 Cl      1  UNL1       -0.0814
     23 CL        173.2170  120.9190  184.3030 Cl      1  UNL1       -0.0814
@<TRIPOS>BOND
     1     3     2    1
     2     4     3    1
     3     4     5    1
     4     7     6   ar
     5     8     7   ar
     6     9     8   ar
     7    10     6   ar
     8    11     4    1
     9    12    11    1
    10    13    12   ar
    11    14    13   ar
    12    15    14   ar
    13    16    15   ar
    14    17    16   ar
    15    17    12   ar
    16    18     4    1
    17    18     1    1
    18    19     1    1
    19    19     2    1
    20    20    10   ar
    21    20     9   ar
    22    21     5    1
    23    21     6    1
    24    22    15    1
    25    23    16    1
