@<TRIPOS>MOLECULE
7DJI_H8U_D401
 71 77 0 0 0
SMALL
GASTEIGER

@<TRIPOS>ATOM
      1  OAV      168.3120  121.0760  182.3400 O.2   401  H8U401     -0.2745
      2  CAP      167.4930  122.0000  182.3510 C.2   401  H8U401      0.2285
      3  NAO      166.5940  122.1690  181.3960 N.am  401  H8U401     -0.2815
      4  CAN      165.8940  123.2690  181.6600 C.ar  401  H8U401      0.0841
      5  CBA      164.9380  123.8670  180.9150 C.ar  401  H8U401      0.1903
      6  OBF      164.6300  123.2070  179.7650 O.3   401  H8U401     -0.4582
      7  CBE      164.0400  123.8600  178.7110 C.2   401  H8U401      0.0925
      8  CBD      163.5810  125.1660  178.5390 C.2   401  H8U401     -0.0066
      9  CBC      163.5700  126.2550  179.4260 C.3   401  H8U401      0.1264
     10  CBG      162.3970  127.1860  179.0740 C.3   401  H8U401     -0.0214
     11  CBH      164.8680  127.0780  179.2990 C.3   401  H8U401     -0.0214
     12  OBB      163.3660  125.7870  180.7840 O.3   401  H8U401     -0.4784
     13  CAZ      164.3540  125.0360  181.3570 C.ar  401  H8U401      0.1656
     14  CAY      164.7920  125.5690  182.5580 C.ar  401  H8U401     -0.0158
     15  CAX      165.7910  124.9270  183.2740 C.ar  401  H8U401     -0.0521
     16  CAM      166.3330  123.7890  182.8320 C.ar  401  H8U401     -0.0068
     17  CAH      167.3590  122.9680  183.3630 C.3   401  H8U401      0.0812
     18  CAI      168.6900  123.7300  183.5250 C.3   401  H8U401     -0.0143
     19  CAG      167.0440  122.3180  184.7870 C.3   401  H8U401     -0.0121
     20  CBI      166.1140  121.1010  184.6880 C.3   401  H8U401     -0.0582
     21  CBJ      166.3920  123.2910  185.7850 C.3   401  H8U401     -0.0582
     22  CAC      168.4940  121.8660  185.1480 C.3   401  H8U401     -0.0155
     23  CAB      168.8410  121.3690  186.5750 C.3   401  H8U401     -0.0461
     24  CAA      170.2220  121.9710  186.9050 C.3   401  H8U401      0.0453
     25  CAR      171.1210  121.9090  185.7940 C.2   401  H8U401      0.2081
     26  OAU      172.2320  121.3830  185.8430 O.2   401  H8U401     -0.2770
     27  NAS      170.7130  122.5160  184.6600 N.am  401  H8U401     -0.3012
     28  CAT      171.5330  122.5600  183.4210 C.3   401  H8U401      0.0036
     29  CAD      169.3650  123.0860  184.7990 C.3   401  H8U401      0.0270
     30  CAE      169.5410  124.0930  185.9760 C.3   401  H8U401     -0.0667
     31  NAF      169.9590  123.3850  187.2140 N.4   401  H8U401      0.3926
     32  CAJ      171.2090  123.8580  187.8460 C.3   401  H8U401     -0.0864
     33  CAK      171.7870  122.6260  188.5800 C.3   401  H8U401     -0.0367
     34  CAL      170.8270  121.4760  188.2470 C.3   401  H8U401      0.0992
     35  CAQ      171.5570  120.1140  188.1860 C.3   401  H8U401     -0.0337
     36  OAW      169.8230  121.3790  189.2530 O.3   401  H8U401     -0.2289
     37  HAO      166.5190  121.6190  180.5650 H     401  H8U401      0.1549
     38  HBE      163.9050  123.2330  177.8310 H     401  H8U401      0.1027
     39  HBD      163.1600  125.3570  177.5530 H     401  H8U401      0.0642
     40  HBG      162.6060  128.1900  179.4450 H     401  H8U401      0.0271
     41  HBH      161.4870  126.8130  179.5440 H     401  H8U401      0.0271
     42  HBI      162.2510  127.2350  177.9950 H     401  H8U401      0.0271
     43  HBJ      165.7030  126.4080  179.0940 H     401  H8U401      0.0271
     44  HBK      165.0520  127.6160  180.2280 H     401  H8U401      0.0271
     45  HBL      164.7710  127.7910  178.4810 H     401  H8U401      0.0271
     46  HAY      164.3640  126.4840  182.9350 H     401  H8U401      0.0655
     47  HAX      166.1160  125.3690  184.2090 H     401  H8U401      0.0622
     48  HAJ      169.3880  123.5070  182.7910 H     401  H8U401      0.0299
     49  HAI      168.6720  124.7480  183.7860 H     401  H8U401      0.0299
     50  HBM      165.7130  120.8800  185.6740 H     401  H8U401      0.0235
     51  HBN      166.6610  120.2310  184.3240 H     401  H8U401      0.0235
     52  HBO      165.2890  121.3220  184.0100 H     401  H8U401      0.0235
     53  HBQ      166.4930  122.9160  186.7990 H     401  H8U401      0.0235
     54  HBR      165.3300  123.3730  185.5550 H     401  H8U401      0.0235
     55  HBP      166.8360  124.2730  185.7250 H     401  H8U401      0.0235
     56  HAD      168.7720  121.0520  184.4930 H     401  H8U401      0.0326
     57  HAB      168.0960  121.6850  187.2980 H     401  H8U401      0.0261
     58  HAC      168.9060  120.2820  186.5750 H     401  H8U401      0.0261
     59  HAU      172.5370  122.1810  183.5990 H     401  H8U401      0.0429
     60  HAV      171.6180  123.5830  183.0590 H     401  H8U401      0.0429
     61  HAT      171.0740  121.9510  182.6410 H     401  H8U401      0.0429
     62  HAF      170.3150  124.8060  185.6960 H     401  H8U401      0.0080
     63  HAE      168.6310  124.6420  186.1700 H     401  H8U401      0.0080
     64  HAL      171.9260  124.2260  187.1190 H     401  H8U401      0.0060
     65  HAK      170.9810  124.6450  188.5670 H     401  H8U401      0.0060
     66  HAN      172.7940  122.4200  188.2190 H     401  H8U401      0.0275
     67  HAM      171.8040  122.8040  189.6560 H     401  H8U401      0.0275
     68  HAQ      171.2770  119.5150  189.0530 H     401  H8U401      0.0258
     69  HAR      172.6380  120.2590  188.1930 H     401  H8U401      0.0258
     70  HAS      171.2770  119.5820  187.2900 H     401  H8U401      0.0258
     71  HBS      169.2230  123.4630  187.8870 H     401  H8U401     -0.0801
@<TRIPOS>BOND
     1    39     8    1
     2    38     7    1
     3    42    10    1
     4    45    11    1
     5     8     7    2
     6     8     9    1
     7     7     6    1
     8    10     9    1
     9    10    40    1
    10    10    41    1
    11    43    11    1
    12    11     9    1
    13    11    44    1
    14     9    12    1
    15     6     5    1
    16    37     3    1
    17    12    13    1
    18     5    13   ar
    19     5     4   ar
    20    13    14   ar
    21     3     4    1
    22     3     2   am
    23     4    16   ar
    24     1     2    2
    25     2    17    1
    26    14    46    1
    27    14    15   ar
    28    61    28    1
    29    48    18    1
    30    16    15   ar
    31    16    17    1
    32    60    28    1
    33    15    47    1
    34    17    18    1
    35    17    19    1
    36    28    59    1
    37    28    27    1
    38    18    49    1
    39    18    29    1
    40    52    20    1
    41    51    20    1
    42    56    22    1
    43    27    29    1
    44    27    25   am
    45    20    19    1
    46    20    50    1
    47    19    22    1
    48    19    21    1
    49    29    22    1
    50    29    30    1
    51    22    23    1
    52    54    21    1
    53    62    30    1
    54    55    21    1
    55    21    53    1
    56    25    26    2
    57    25    24    1
    58    30    63    1
    59    30    31    1
    60    58    23    1
    61    23    24    1
    62    23    57    1
    63    24    31    1
    64    24    34    1
    65    64    32    1
    66    31    32    1
    67    31    71    1
    68    70    35    1
    69    32    65    1
    70    32    33    1
    71    35    69    1
    72    35    34    1
    73    35    68    1
    74    66    33    1
    75    34    33    1
    76    34    36    1
    77    33    67    1
