@<TRIPOS>MOLECULE
8P11_WD5_H301
 14 15 0 0 0
SMALL
GASTEIGER

@<TRIPOS>ATOM
      1 C         168.2530  122.6380  185.8790 C.3     1  UNL1        0.1481
      2 O         168.3390  121.4130  185.1430 O.3     1  UNL1       -0.2211
      3 C         169.4910  122.7720  186.7780 C.ar    1  UNL1        0.0052
      4 C         169.9190  124.0250  187.2150 C.ar    1  UNL1       -0.0011
      5 C         171.0230  124.1670  188.0440 C.ar    1  UNL1        0.0111
      6 C         171.7170  123.0530  188.4520 C.ar    1  UNL1        0.0577
      7 CL        173.1020  123.2790  189.4910 Cl      1  UNL1       -0.0822
      8 C         171.3320  121.7930  188.0490 C.ar    1  UNL1        0.0111
      9 C         170.2260  121.6590  187.2080 C.ar    1  UNL1       -0.0011
     10 C         168.1390  123.8040  184.8850 C.3     1  UNL1        0.0535
     11 C         166.8870  123.7170  184.0350 C.3     1  UNL1        0.0916
     12 N         165.6580  123.7070  184.8410 N.3     1  UNL1       -0.2179
     13 C         165.6940  122.6790  185.8910 C.3     1  UNL1        0.0916
     14 C         166.9660  122.6900  186.7200 C.3     1  UNL1        0.0535
@<TRIPOS>BOND
     1     1     2    1
     2     3     1    1
     3     4     3   ar
     4     5     4   ar
     5     6     5   ar
     6     7     6    1
     7     8     6   ar
     8     9     8   ar
     9     9     3   ar
    10    10     1    1
    11    11    10    1
    12    12    11    1
    13    13    12    1
    14    14    13    1
    15    14     1    1
