@<TRIPOS>MOLECULE
8QTL_WSP_A301
 16 18 0 0 0
SMALL
GASTEIGER

@<TRIPOS>ATOM
      1 C         167.3750  123.3560  184.1400 C.3     1  UNL1        0.0783
      2 C         165.4770  123.9560  186.2920 C.3     1  UNL1        0.1247
      3 C         165.2060  122.7600  185.4130 C.3     1  UNL1        0.0268
      4 C         167.7860  124.0310  185.4340 C.2     1  UNL1        0.0357
      5 N         166.8900  124.2390  186.3980 N.2     1  UNL1       -0.2788
      6 C         169.1920  124.4920  185.7460 C.3     1  UNL1        0.0470
      7 C         165.8590  123.0530  184.0750 C.3     1  UNL1        0.0120
      8 C         168.1740  122.0500  184.1070 C.3     1  UNL1        0.1914
      9 O         167.8280  121.2690  185.2500 O.3     1  UNL1       -0.3313
     10 C         168.9970  120.9560  186.0060 C.3     1  UNL1        0.1767
     11 C         170.1570  121.4060  185.1290 C.3     1  UNL1        0.1767
     12 O         169.5800  122.2920  184.1690 O.3     1  UNL1       -0.3313
     13 C         167.9350  121.2490  182.8370 C.3     1  UNL1        0.0566
     14 C         167.7960  122.1240  181.5940 C.3     1  UNL1        0.0050
     15 C         168.3510  123.5240  181.7810 C.3     1  UNL1        0.0007
     16 C         167.7170  124.2620  182.9520 C.3     1  UNL1        0.0099
@<TRIPOS>BOND
     1     3     2    1
     2     4     1    1
     3     5     4    2
     4     5     2    1
     5     6     4    1
     6     1     7    1
     7     7     3    1
     8     8     1    1
     9     9     8    1
    10    10     9    1
    11    11    10    1
    12    12     8    1
    13    12    11    1
    14     8    13    1
    15    14    13    1
    16    15    14    1
    17    16    15    1
    18    16     1    1
