@<TRIPOS>MOLECULE
9SG3_PHN_A302
 14 16 0 0 0
SMALL
GASTEIGER

@<TRIPOS>ATOM
      1 N         167.6340  122.9820  186.3130 N.ar    1  UNL1       -0.2423
      2 C         166.8780  123.7840  185.6010 C.ar    1  UNL1        0.0989
      3 C         166.6810  123.6380  184.2220 C.ar    1  UNL1        0.0207
      4 C         167.3160  122.6040  183.5860 C.ar    1  UNL1        0.0031
      5 C         168.1280  121.7270  184.3220 C.ar    1  UNL1        0.0192
      6 C         168.8100  120.6320  183.7100 C.ar    1  UNL1        0.0016
      7 C         169.5880  119.8050  184.4420 C.ar    1  UNL1        0.0016
      8 C         169.7450  120.0140  185.8460 C.ar    1  UNL1        0.0192
      9 C         170.5450  119.1710  186.6310 C.ar    1  UNL1        0.0031
     10 C         170.6650  119.4210  187.9730 C.ar    1  UNL1        0.0207
     11 C         169.9690  120.5110  188.5130 C.ar    1  UNL1        0.0989
     12 N         169.2110  121.3130  187.8050 N.ar    1  UNL1       -0.2423
     13 C         169.0900  121.0830  186.4900 C.ar    1  UNL1        0.0988
     14 C         168.2570  121.9660  185.7030 C.ar    1  UNL1        0.0988
@<TRIPOS>BOND
     1     2     1   ar
     2     3     2   ar
     3     4     3   ar
     4     5     4   ar
     5     6     5   ar
     6     7     6   ar
     7     8     7   ar
     8     9     8   ar
     9    10     9   ar
    10    11    10   ar
    11    12    11   ar
    12    13    12   ar
    13    13     8   ar
    14    14     5   ar
    15    14     1   ar
    16    14    13   ar
