@<TRIPOS>MOLECULE
1HW9_SIM_C1
 31 32 0 0 0
SMALL
GASTEIGER

@<TRIPOS>ATOM
      1 O          16.3080    2.5630   15.9800 O.co2   1  UNL1       -0.2456
      2 O          14.1450    1.8510   16.1820 O.co2   1  UNL1       -0.2456
      3 O          13.5740    4.8310   14.7170 O.3     1  UNL1       -0.2225
      4 O          15.0460    6.5280   10.9290 O.3     1  UNL1       -0.2231
      5 O          17.7590    9.9740   15.6060 O.3     1  UNL1       -0.4519
      6 O          15.4950   10.2120   16.1040 O.2     1  UNL1       -0.2501
      7 C          15.0350    2.3760   15.5190 C.2     1  UNL1        0.3674
      8 C          14.8540    2.8880   14.1020 C.3     1  UNL1        0.1469
      9 C          14.7330    4.4140   14.0100 C.3     1  UNL1        0.1658
     10 C          14.5740    4.8800   12.5720 C.3     1  UNL1        0.0663
     11 C          14.9020    6.3530   12.3300 C.3     1  UNL1        0.1546
     12 C          16.2190    6.7650   13.0280 C.3     1  UNL1        0.0330
     13 C          16.7570    8.1800   12.6740 C.3     1  UNL1        0.0034
     14 C          18.2440    8.4270   13.1180 C.3     1  UNL1        0.0116
     15 C          19.2950    7.7820   12.1490 C.3     1  UNL1        0.0224
     16 C          20.7180    8.0730   12.6800 C.2     1  UNL1       -0.0268
     17 C          21.0400    9.1640   13.4240 C.2     1  UNL1       -0.0091
     18 C          20.1170   10.1050   13.7700 C.2     1  UNL1       -0.0236
     19 C          20.5030   11.1860   14.5120 C.2     1  UNL1       -0.0305
     20 C          19.5640   12.3270   14.9650 C.3     1  UNL1        0.0253
     21 C          18.0940   12.1540   14.4650 C.3     1  UNL1        0.0483
     22 C          17.6670   10.6690   14.3160 C.3     1  UNL1        0.1730
     23 C          18.6200    9.9530   13.3180 C.3     1  UNL1        0.0624
     24 C          19.2430    8.3290   10.7090 C.3     1  UNL1        0.0047
     25 C          16.6260    9.8070   16.4020 C.2     1  UNL1        0.3158
     26 C          16.9380    9.0320   17.7420 C.3     1  UNL1        0.0896
     27 C          16.0820    7.7300   17.8490 C.3     1  UNL1        0.0106
     28 C          15.9100    6.8810   16.5760 C.3     1  UNL1        0.0006
     29 C          16.6550    9.9240   18.9890 C.3     1  UNL1        0.0111
     30 C          18.4390    8.6280   17.8590 C.3     1  UNL1        0.0111
     31 C          19.6020   12.4070   16.4980 C.3     1  UNL1        0.0048
@<TRIPOS>BOND
     1     7     2   ar
     2     7     1   ar
     3     8     7    1
     4     9     8    1
     5     9     3    1
     6    10     9    1
     7    11    10    1
     8    11     4    1
     9    12    11    1
    10    13    12    1
    11    14    13    1
    12    15    14    1
    13    16    15    1
    14    17    16    2
    15    18    17    1
    16    19    18    2
    17    20    19    1
    18    21    20    1
    19    22     5    1
    20    22    21    1
    21    23    22    1
    22    23    18    1
    23    23    14    1
    24    15    24    1
    25    25     6    2
    26    25     5    1
    27    26    25    1
    28    27    26    1
    29    28    27    1
    30    26    29    1
    31    30    26    1
    32    20    31    1
