@<TRIPOS>MOLECULE
1HWJ_116_A2
 33 34 0 0 0
SMALL
GASTEIGER

@<TRIPOS>ATOM
      1 C          18.7740   10.6370   19.3900 C.3     1  UNL1        0.1746
      2 O          18.5440   10.5560   17.9590 O.3     1  UNL1       -0.3463
      3 C          19.1300    9.4110   17.3690 C.3     1  UNL1        0.1699
      4 C          21.0660   10.3740   15.2280 C.3     1  UNL1        0.0400
      5 C          21.1800   11.8060   14.6230 C.3     1  UNL1        0.0063
      6 C          22.2370    9.5200   14.7020 C.3     1  UNL1        0.0063
      7 C          17.5040    8.6820   15.4510 C.ar    1  UNL1       -0.0033
      8 C          17.2650    8.5820   14.0390 C.ar    1  UNL1       -0.0088
      9 C          18.2650    9.0590   13.1380 C.ar    1  UNL1        0.0542
     10 N          19.3790    9.5920   13.6140 N.ar    1  UNL1       -0.2546
     11 C          19.6700    9.7180   14.8950 C.ar    1  UNL1        0.0565
     12 C          18.7480    9.2690   15.8790 C.ar    1  UNL1        0.0205
     13 C          14.8880    8.6610   18.0960 C.ar    1  UNL1        0.0296
     14 C          15.8440    9.1120   17.1990 C.ar    1  UNL1        0.0023
     15 C          16.5460    8.2140   16.3650 C.ar    1  UNL1       -0.0003
     16 C          16.2470    6.8360   16.4760 C.ar    1  UNL1        0.0023
     17 C          15.2760    6.3890   17.3870 C.ar    1  UNL1        0.0296
     18 C          14.6030    7.3120   18.1900 C.ar    1  UNL1        0.1401
     19 F          13.6500    6.8940   19.0730 F       1  UNL1       -0.2042
     20 O          13.7740    1.7880   16.1520 O.co2   1  UNL1       -0.2456
     21 O          15.8550    2.6620   16.1510 O.co2   1  UNL1       -0.2456
     22 O          13.3810    4.7630   14.4400 O.3     1  UNL1       -0.2225
     23 C          14.6920    2.3530   15.5680 C.2     1  UNL1        0.3674
     24 C          14.6520    2.7720   14.1130 C.3     1  UNL1        0.1469
     25 C          14.6210    4.3000   13.9170 C.3     1  UNL1        0.1658
     26 C          14.7090    4.6960   12.4250 C.3     1  UNL1        0.0663
     27 C          14.6630    6.2400   12.1490 C.3     1  UNL1        0.1549
     28 C          15.9210    6.8910   12.6800 C.3     1  UNL1        0.0377
     29 C          15.9520    7.9480   13.4970 C.3     1  UNL1        0.0301
     30 C          18.1550    8.9890   11.5850 C.3     1  UNL1        0.0400
     31 C          18.3990   10.3360   10.8810 C.3     1  UNL1        0.0063
     32 C          19.1650    7.9560   11.0100 C.3     1  UNL1        0.0063
     33 O          14.5300    6.4040   10.7550 O.3     1  UNL1       -0.2231
@<TRIPOS>BOND
     1     2     1    1
     2     3     2    1
     3     4     5    1
     4     6     4    1
     5     8     7   ar
     6     9     8   ar
     7    10     9   ar
     8    11    10   ar
     9    11     4    1
    10    12    11   ar
    11    12     7   ar
    12    12     3    1
    13    14    13   ar
    14    15    14   ar
    15    15     7    1
    16    16    15   ar
    17    17    16   ar
    18    18    17   ar
    19    18    13   ar
    20    19    18    1
    21    23    21   ar
    22    23    20   ar
    23    24    23    1
    24    25    24    1
    25    25    22    1
    26    26    25    1
    27    27    26    1
    28    28    27    1
    29    29    28    1
    30    29     8    1
    31    30     9    1
    32    30    31    1
    33    32    30    1
    34    27    33    1
