@<TRIPOS>MOLECULE
1HWJ_116_C4
 33 34 0 0 0
SMALL
GASTEIGER

@<TRIPOS>ATOM
      1 C          18.9940   10.8650   19.2670 C.3     1  UNL1        0.1746
      2 O          18.8200   10.6950   17.8530 O.3     1  UNL1       -0.3463
      3 C          19.1960    9.4050   17.3820 C.3     1  UNL1        0.1699
      4 C          21.0860   10.3520   15.2150 C.3     1  UNL1        0.0400
      5 C          21.1830   11.7460   14.5670 C.3     1  UNL1        0.0063
      6 C          22.2750    9.4960   14.7010 C.3     1  UNL1        0.0063
      7 C          17.5460    8.6760   15.5090 C.ar    1  UNL1       -0.0033
      8 C          17.2720    8.5750   14.0990 C.ar    1  UNL1       -0.0088
      9 C          18.2570    9.0430   13.1770 C.ar    1  UNL1        0.0542
     10 N          19.3720    9.5650   13.6350 N.ar    1  UNL1       -0.2546
     11 C          19.6870    9.6920   14.9080 C.ar    1  UNL1        0.0565
     12 C          18.7920    9.2570   15.9030 C.ar    1  UNL1        0.0205
     13 C          15.0070    8.5900   18.2470 C.ar    1  UNL1        0.0296
     14 C          15.9460    9.1000   17.3300 C.ar    1  UNL1        0.0023
     15 C          16.6140    8.2200   16.4420 C.ar    1  UNL1       -0.0003
     16 C          16.3050    6.8390   16.5050 C.ar    1  UNL1        0.0023
     17 C          15.3980    6.3450   17.4350 C.ar    1  UNL1        0.0296
     18 C          14.7390    7.2080   18.2850 C.ar    1  UNL1        0.1401
     19 F          13.8320    6.7090   19.1630 F       1  UNL1       -0.2042
     20 O          13.8820    1.8530   16.0980 O.co2   1  UNL1       -0.2456
     21 O          16.0190    2.6090   16.1210 O.co2   1  UNL1       -0.2456
     22 O          13.6250    4.7450   14.5680 O.3     1  UNL1       -0.2225
     23 C          14.8260    2.3470   15.5250 C.2     1  UNL1        0.3674
     24 C          14.8090    2.7540   14.0790 C.3     1  UNL1        0.1469
     25 C          14.7910    4.2780   13.9200 C.3     1  UNL1        0.1658
     26 C          14.7460    4.6910   12.4530 C.3     1  UNL1        0.0663
     27 C          14.6820    6.2190   12.2020 C.3     1  UNL1        0.1549
     28 C          15.9070    6.8830   12.7670 C.3     1  UNL1        0.0377
     29 C          15.9380    7.9550   13.5650 C.3     1  UNL1        0.0301
     30 C          18.0970    8.9740   11.6210 C.3     1  UNL1        0.0400
     31 C          18.4340   10.2800   10.8730 C.3     1  UNL1        0.0063
     32 C          18.9630    7.8300   11.0160 C.3     1  UNL1        0.0063
     33 O          14.6190    6.3930   10.8040 O.3     1  UNL1       -0.2231
@<TRIPOS>BOND
     1     2     1    1
     2     3     2    1
     3     4     5    1
     4     6     4    1
     5     8     7   ar
     6     9     8   ar
     7    10     9   ar
     8    11    10   ar
     9    11     4    1
    10    12    11   ar
    11    12     7   ar
    12    12     3    1
    13    14    13   ar
    14    15    14   ar
    15    15     7    1
    16    16    15   ar
    17    17    16   ar
    18    18    17   ar
    19    18    13   ar
    20    19    18    1
    21    23    21   ar
    22    23    20   ar
    23    24    23    1
    24    25    24    1
    25    25    22    1
    26    26    25    1
    27    27    26    1
    28    28    27    1
    29    29    28    1
    30    29     8    1
    31    30     9    1
    32    30    31    1
    33    32    30    1
    34    27    33    1
