@<TRIPOS>MOLECULE
2Q6B_HR2_A3001
 38 41 0 0 0
SMALL
GASTEIGER

@<TRIPOS>ATOM
      1 N          18.3760    9.1450   13.0950 N.ar    1  UNL1       -0.3292
      2 C          18.8610    9.6930   15.2340 C.ar    1  UNL1       -0.0008
      3 C          17.5770    9.2130   15.1140 C.ar    1  UNL1        0.0092
      4 C          19.6210   10.1870   16.4410 C.3     1  UNL1        0.0298
      5 C          14.8080    8.7790   18.3490 C.ar    1  UNL1        0.1401
      6 C          16.0640   10.1890   16.8450 C.ar    1  UNL1        0.0023
      7 C          18.5080    8.9430   11.6190 C.3     1  UNL1        0.0854
      8 C          20.7220   10.0860   13.6570 C.2     1  UNL1        0.2683
      9 C          15.1610   10.0450   17.8960 C.ar    1  UNL1        0.0296
     10 C          22.5170   11.4390   14.2460 C.ar    1  UNL1        0.0541
     11 C          16.1700    6.8600   12.9220 C.3     1  UNL1        0.0392
     12 C          14.8850    6.2320   12.3980 C.3     1  UNL1        0.1549
     13 C          14.9570    4.7150   12.5370 C.3     1  UNL1        0.0663
     14 C          14.8500    2.7580   14.0710 C.3     1  UNL1        0.1469
     15 C          23.1360   11.8550   13.0660 C.ar    1  UNL1        0.0149
     16 F          13.9340    8.6620   19.3650 F       1  UNL1       -0.2042
     17 C          16.6170    9.0640   16.2450 C.ar    1  UNL1        0.0010
     18 C          16.2610    7.7910   16.6930 C.ar    1  UNL1        0.0023
     19 C          15.3580    7.6480   17.7480 C.ar    1  UNL1        0.0296
     20 C          17.2650    8.8770   13.8120 C.ar    1  UNL1        0.0368
     21 C          15.9560    8.3170   13.3010 C.3     1  UNL1        0.0464
     22 O          14.7260    6.5570   11.0290 O.3     1  UNL1       -0.2230
     23 C          14.8100    4.2770   13.9870 C.3     1  UNL1        0.1658
     24 O          13.5840    4.7550   14.5060 O.3     1  UNL1       -0.2225
     25 C          15.0360    2.3590   15.5140 C.2     1  UNL1        0.3674
     26 O          16.1900    2.6090   16.1310 O.co2   1  UNL1       -0.2456
     27 O          14.1260    1.8200   16.1170 O.co2   1  UNL1       -0.2456
     28 C          18.9280   10.2530   10.9650 C.3     1  UNL1        0.0245
     29 C          19.4660    7.7940   11.3110 C.3     1  UNL1        0.0245
     30 C          19.8950   11.6890   16.3050 C.3     1  UNL1        0.0266
     31 C          20.3150   12.1810   14.9130 C.3     1  UNL1        0.0989
     32 N          21.1750   11.1850   14.2750 N.am    1  UNL1       -0.2540
     33 O          21.4710    9.2910   13.1100 O.2     1  UNL1       -0.2680
     34 C          19.3250    9.6340   13.9280 C.ar    1  UNL1        0.1102
     35 C          24.5070   12.1100   13.0350 C.ar    1  UNL1        0.0013
     36 C          25.2670   11.9570   14.1900 C.ar    1  UNL1        0.0001
     37 C          24.6520   11.5480   15.3720 C.ar    1  UNL1        0.0013
     38 C          23.2800   11.2920   15.4050 C.ar    1  UNL1        0.0149
@<TRIPOS>BOND
     1     3     2   ar
     2     4     2    1
     3     7     1    1
     4     9     6   ar
     5     9     5   ar
     6    12    11    1
     7    13    12    1
     8    15    10   ar
     9    16     5    1
    10    17     6   ar
    11    17     3    1
    12    18    17   ar
    13    19    18   ar
    14    19     5   ar
    15    20     3   ar
    16    20     1   ar
    17    21    11    1
    18    21    20    1
    19    12    22    1
    20    23    14    1
    21    23    13    1
    22    23    24    1
    23    25    14    1
    24    26    25   ar
    25    27    25   ar
    26     7    28    1
    27    29     7    1
    28    30     4    1
    29    31    30    1
    30    32     8   am
    31    32    31    1
    32    32    10    1
    33    33     8    2
    34    34     8    1
    35    34     2   ar
    36    34     1   ar
    37    35    15   ar
    38    36    35   ar
    39    37    36   ar
    40    38    37   ar
    41    38    10   ar
