@<TRIPOS>MOLECULE
3NY9_JSZ_A1203
 24 25 0 0 0
SMALL
GASTEIGER

@<TRIPOS>ATOM
      1 C         -25.7610    7.4280    7.1260 C.2     1  UNL1        0.3760
      2 N         -33.8240    8.4980    7.2750 N.3     1  UNL1       -0.2167
      3 O         -24.8460    7.0900    6.3960 O.2     1  UNL1       -0.2414
      4 C         -25.6140    5.2960    8.4820 C.3     1  UNL1        0.2090
      5 O         -26.1310    6.6180    8.2820 O.3     1  UNL1       -0.4433
      6 C         -26.7420    4.3660    8.8780 C.3     1  UNL1        0.0513
      7 O         -25.9120    9.7810    6.3250 O.2     1  UNL1       -0.4472
      8 C         -26.5120    8.6690    6.8250 C.ar    1  UNL1        0.2166
      9 O         -30.5240   10.8010    6.7460 O.3     1  UNL1       -0.4726
     10 C         -27.9590    8.9560    6.9700 C.ar    1  UNL1        0.0251
     11 O         -33.6590   11.2360    8.0120 O.3     1  UNL1       -0.2176
     12 C         -29.1190    8.1320    7.4610 C.3     1  UNL1        0.0347
     13 C         -28.1650   10.2770    6.5370 C.ar    1  UNL1        0.0677
     14 C         -26.8780   10.6880    6.1710 C.ar    1  UNL1        0.1482
     15 C         -26.6540   11.9690    5.6790 C.ar    1  UNL1        0.0377
     16 C         -27.7290   12.8510    5.5550 C.ar    1  UNL1        0.0062
     17 C         -29.0130   12.4510    5.9170 C.ar    1  UNL1        0.0371
     18 C         -29.2410   11.1670    6.4140 C.ar    1  UNL1        0.1413
     19 C         -31.2370   11.2520    7.9040 C.3     1  UNL1        0.2395
     20 C         -32.4980   10.4050    8.0950 C.3     1  UNL1        0.2126
     21 C         -32.6180    9.3120    7.0370 C.3     1  UNL1        0.1253
     22 C         -33.4820    7.0570    7.3780 C.3     1  UNL1        0.0730
     23 C         -34.7430    6.2500    7.6710 C.3     1  UNL1        0.0188
     24 C         -32.8140    6.5490    6.1030 C.3     1  UNL1        0.0188
@<TRIPOS>BOND
     1     3     1    2
     2     5     4    1
     3     5     1    1
     4     6     4    1
     5     8     7   ar
     6     8     1    1
     7    10     8   ar
     8    12    10    1
     9    13    10   ar
    10    14    13   ar
    11    14     7   ar
    12    15    14   ar
    13    16    15   ar
    14    17    16   ar
    15    18    13   ar
    16    18     9    1
    17    18    17   ar
    18    19     9    1
    19    20    11    1
    20    20    19    1
    21    21     2    1
    22    21    20    1
    23    22     2    1
    24    22    23    1
    25    24    22    1
