@<TRIPOS>MOLECULE
3SN6_P0G_R1601
 27 29 0 0 0
SMALL
GASTEIGER

@<TRIPOS>ATOM
      1 C         -34.6520    3.5190    5.7070 C.3     1  UNL1        0.0307
      2 C         -32.3790    5.8150    5.6830 C.3     1  UNL1        0.0178
      3 C         -32.1180    6.0390    8.1480 C.3     1  UNL1        0.0178
      4 O         -24.9210    7.5000    7.4440 O.2     1  UNL1       -0.2689
      5 O         -26.2030   11.4470    5.2810 O.3     1  UNL1       -0.2851
      6 O         -31.6770   10.2100    7.9860 O.3     1  UNL1       -0.2166
      7 C         -35.0590    2.4240    9.3030 C.ar    1  UNL1       -0.0003
      8 C         -34.9520    3.6320    9.9810 C.ar    1  UNL1       -0.0003
      9 C         -34.9600    2.3970    7.9180 C.ar    1  UNL1       -0.0046
     10 C         -34.7500    4.8080    9.2700 C.ar    1  UNL1       -0.0045
     11 C         -28.5150   11.6520    5.8300 C.ar    1  UNL1        0.0434
     12 C         -29.6810   11.0940    6.3430 C.ar    1  UNL1        0.0046
     13 C         -27.2530    7.3220    7.8390 C.3     1  UNL1        0.2915
     14 C         -31.7360    8.5660    6.2370 C.3     1  UNL1        0.1261
     15 C         -34.4260    6.0750    7.1240 C.3     1  UNL1        0.0421
     16 N         -32.9020    7.8930    6.7800 N.3     1  UNL1       -0.2174
     17 N         -26.2380    8.8330    6.2160 N.am    1  UNL1       -0.1697
     18 O         -28.4480    7.7600    7.1960 O.3     1  UNL1       -0.4644
     19 C         -26.0360    7.8970    7.1450 C.2     1  UNL1        0.2903
     20 C         -34.7550    3.5750    7.2080 C.ar    1  UNL1       -0.0258
     21 C         -27.3460   10.9020    5.7830 C.ar    1  UNL1        0.2138
     22 C         -34.6410    4.7810    7.8830 C.ar    1  UNL1       -0.0248
     23 C         -29.6760    9.7820    6.8020 C.ar    1  UNL1        0.0446
     24 C         -27.3500    9.6000    6.2500 C.ar    1  UNL1        0.1458
     25 C         -28.5050    9.0510    6.7580 C.ar    1  UNL1        0.1560
     26 C         -30.9060    9.1810    7.3580 C.3     1  UNL1        0.1945
     27 C         -32.9540    6.4500    6.9420 C.3     1  UNL1        0.0636
@<TRIPOS>BOND
     1     8     7   ar
     2     9     7   ar
     3    10     8   ar
     4    12    11   ar
     5    16    14    1
     6    18    13    1
     7    19    13    1
     8    19    17   am
     9    19     4    2
    10    20     9   ar
    11    20     1    1
    12    21    11   ar
    13    21     5    1
    14    22    20   ar
    15    22    10   ar
    16    22    15    1
    17    23    12   ar
    18    24    21   ar
    19    24    17    1
    20    25    24   ar
    21    25    23   ar
    22    25    18    1
    23    26    23    1
    24    26    14    1
    25    26     6    1
    26    27    16    1
    27    27    15    1
    28    27     3    1
    29    27     2    1
