@<TRIPOS>MOLECULE
8GE2_G1I_R501
 15 16 0 0 0
SMALL
GASTEIGER

@<TRIPOS>ATOM
      1 C         -29.8720   11.4910    6.7200 C.ar    1  UNL1        0.0014
      2 C         -28.7080   12.0770    6.2680 C.ar    1  UNL1        0.0451
      3 C         -27.5450   11.3240    6.0340 C.ar    1  UNL1        0.2339
      4 C         -27.6230    9.8990    6.2880 C.ar    1  UNL1        0.2300
      5 C         -28.8480    9.3090    6.7590 C.ar    1  UNL1        0.0185
      6 C         -29.9800   10.1100    6.9820 C.ar    1  UNL1        0.0084
      7 C         -28.9110    7.8000    7.0260 C.3     1  UNL1        0.0310
      8 C         -30.3180    7.1250    7.0820 C.3     1  UNL1        0.0251
      9 C         -31.5110    8.0520    6.7940 C.3     1  UNL1        0.1077
     10 C         -31.2760    9.4410    7.4820 C.3     1  UNL1        0.1899
     11 C         -33.3000    6.4040    6.2630 C.3     1  UNL1        0.1075
     12 N         -32.7930    7.4310    7.1920 N.3     1  UNL1       -0.2150
     13 O         -26.5550    9.1460    6.0840 O.3     1  UNL1       -0.2835
     14 O         -26.3970   11.8400    5.5970 O.3     1  UNL1       -0.2832
     15 O         -32.3720   10.2380    7.1770 O.3     1  UNL1       -0.2168
@<TRIPOS>BOND
     1     2     1   ar
     2     3     2   ar
     3     4     3   ar
     4     5     4   ar
     5     6     5   ar
     6     6     1   ar
     7     7     5    1
     8     8     7    1
     9     9     8    1
    10    10     9    1
    11    10     6    1
    12    12    11    1
    13     9    12    1
    14    13     4    1
    15    14     3    1
    16    10    15    1
