@<TRIPOS>MOLECULE
8GE3_G1I_R501
 15 16 0 0 0
SMALL
GASTEIGER

@<TRIPOS>ATOM
      1 C         -29.7880   11.4200    6.7500 C.ar    1  UNL1        0.0014
      2 C         -28.6300   12.0120    6.2880 C.ar    1  UNL1        0.0451
      3 C         -27.4610   11.2670    6.0590 C.ar    1  UNL1        0.2339
      4 C         -27.5250    9.8430    6.3320 C.ar    1  UNL1        0.2300
      5 C         -28.7440    9.2490    6.8120 C.ar    1  UNL1        0.0185
      6 C         -29.8840   10.0430    7.0260 C.ar    1  UNL1        0.0084
      7 C         -28.7970    7.7440    7.0990 C.3     1  UNL1        0.0310
      8 C         -30.2030    7.0580    7.1490 C.3     1  UNL1        0.0251
      9 C         -31.4050    7.9730    6.8660 C.3     1  UNL1        0.1077
     10 C         -31.1700    9.3680    7.5390 C.3     1  UNL1        0.1899
     11 C         -33.1720    6.2720    6.4180 C.3     1  UNL1        0.1075
     12 N         -32.6800    7.3530    7.2910 N.3     1  UNL1       -0.2150
     13 O         -26.4520    9.0950    6.1360 O.3     1  UNL1       -0.2835
     14 O         -26.3170   11.7900    5.6140 O.3     1  UNL1       -0.2832
     15 O         -32.2740   10.1600    7.2500 O.3     1  UNL1       -0.2168
@<TRIPOS>BOND
     1     2     1   ar
     2     3     2   ar
     3     4     3   ar
     4     5     4   ar
     5     6     5   ar
     6     6     1   ar
     7     7     5    1
     8     8     7    1
     9     9     8    1
    10    10     9    1
    11    10     6    1
    12    12    11    1
    13     9    12    1
    14    13     4    1
    15    14     3    1
    16    10    15    1
