@<TRIPOS>MOLECULE
8GG5_G1I_R501
 15 16 0 0 0
SMALL
GASTEIGER

@<TRIPOS>ATOM
      1 C         -29.5870   11.7050    6.6900 C.ar    1  UNL1        0.0014
      2 C         -28.4070   12.2090    6.1870 C.ar    1  UNL1        0.0451
      3 C         -27.3060   11.3820    5.9350 C.ar    1  UNL1        0.2339
      4 C         -27.4600    9.9710    6.2220 C.ar    1  UNL1        0.2300
      5 C         -28.6980    9.4640    6.7420 C.ar    1  UNL1        0.0185
      6 C         -29.7720   10.3410    6.9810 C.ar    1  UNL1        0.0084
      7 C         -28.8410    7.9600    7.0400 C.3     1  UNL1        0.0310
      8 C         -30.2830    7.4020    7.2780 C.3     1  UNL1        0.0251
      9 C         -31.4180    8.3760    6.9180 C.3     1  UNL1        0.1077
     10 C         -31.0870    9.7720    7.5370 C.3     1  UNL1        0.1899
     11 C         -32.8910    6.4280    7.4950 C.3     1  UNL1        0.1075
     12 N         -32.7520    7.8830    7.3340 N.3     1  UNL1       -0.2150
     13 O         -26.4560    9.1460    6.0020 O.3     1  UNL1       -0.2835
     14 O         -26.1490   11.8180    5.4520 O.3     1  UNL1       -0.2832
     15 O         -32.1320   10.6240    7.2340 O.3     1  UNL1       -0.2168
@<TRIPOS>BOND
     1     2     1   ar
     2     3     2   ar
     3     4     3   ar
     4     5     4   ar
     5     6     5   ar
     6     6     1   ar
     7     7     5    1
     8     8     7    1
     9     9     8    1
    10    10     9    1
    11    10     6    1
    12    12    11    1
    13     9    12    1
    14    13     4    1
    15    14     3    1
    16    10    15    1
