@<TRIPOS>MOLECULE
8GGJ_G1I_R501
 15 16 0 0 0
SMALL
GASTEIGER

@<TRIPOS>ATOM
      1 C         -29.4920   11.5900    6.7110 C.ar    1  UNL1        0.0014
      2 C         -28.2860   12.0980    6.2730 C.ar    1  UNL1        0.0451
      3 C         -27.1700   11.2730    6.0770 C.ar    1  UNL1        0.2339
      4 C         -27.3360    9.8600    6.3520 C.ar    1  UNL1        0.2300
      5 C         -28.6030    9.3520    6.8060 C.ar    1  UNL1        0.0185
      6 C         -29.6930   10.2260    6.9900 C.ar    1  UNL1        0.0084
      7 C         -28.7520    7.8520    7.0940 C.3     1  UNL1        0.0310
      8 C         -30.1950    7.2830    7.2800 C.3     1  UNL1        0.0251
      9 C         -31.3420    8.2370    6.9020 C.3     1  UNL1        0.1077
     10 C         -31.0470    9.6640    7.4770 C.3     1  UNL1        0.1899
     11 C         -33.2950    6.7740    6.4180 C.3     1  UNL1        0.1075
     12 N         -32.6540    7.7190    7.3440 N.3     1  UNL1       -0.2150
     13 O         -26.3140    9.0430    6.1820 O.3     1  UNL1       -0.2835
     14 O         -25.9850   11.7090    5.6570 O.3     1  UNL1       -0.2832
     15 O         -32.0830   10.4950    7.0640 O.3     1  UNL1       -0.2168
@<TRIPOS>BOND
     1     2     1   ar
     2     3     2   ar
     3     4     3   ar
     4     5     4   ar
     5     6     5   ar
     6     6     1   ar
     7     7     5    1
     8     8     7    1
     9     9     8    1
    10    10     9    1
    11    10     6    1
    12    12    11    1
    13     9    12    1
    14    13     4    1
    15    14     3    1
    16    10    15    1
