@<TRIPOS>MOLECULE
8GGL_G1I_R501
 15 16 0 0 0
SMALL
GASTEIGER

@<TRIPOS>ATOM
      1 C         -29.5130   11.7390    6.7250 C.ar    1  UNL1        0.0014
      2 C         -28.3380   12.2940    6.2670 C.ar    1  UNL1        0.0451
      3 C         -27.2040   11.5070    6.0210 C.ar    1  UNL1        0.2339
      4 C         -27.3170   10.0860    6.2650 C.ar    1  UNL1        0.2300
      5 C         -28.5540    9.5250    6.7410 C.ar    1  UNL1        0.0185
      6 C         -29.6650   10.3620    6.9750 C.ar    1  UNL1        0.0084
      7 C         -28.6480    8.0170    6.9930 C.3     1  UNL1        0.0310
      8 C         -30.0610    7.4070    7.2310 C.3     1  UNL1        0.0251
      9 C         -31.2420    8.3250    6.8860 C.3     1  UNL1        0.1077
     10 C         -30.9830    9.7480    7.4820 C.3     1  UNL1        0.1899
     11 C         -32.9460    6.5380    6.6370 C.3     1  UNL1        0.1075
     12 N         -32.5250    7.7520    7.3400 N.3     1  UNL1       -0.2150
     13 O         -26.2730    9.3080    6.0470 O.3     1  UNL1       -0.2835
     14 O         -26.0460   11.9890    5.5830 O.3     1  UNL1       -0.2832
     15 O         -32.0540   10.5510    7.1070 O.3     1  UNL1       -0.2168
@<TRIPOS>BOND
     1     2     1   ar
     2     3     2   ar
     3     4     3   ar
     4     5     4   ar
     5     6     5   ar
     6     6     1   ar
     7     7     5    1
     8     8     7    1
     9     9     8    1
    10    10     9    1
    11    10     6    1
    12    12    11    1
    13     9    12    1
    14    13     4    1
    15    14     3    1
    16    10    15    1
