@<TRIPOS>MOLECULE
8GGQ_G1I_R501
 15 16 0 0 0
SMALL
GASTEIGER

@<TRIPOS>ATOM
      1 C         -29.5550   11.4930    6.7950 C.ar    1  UNL1        0.0014
      2 C         -28.3830   12.0280    6.2940 C.ar    1  UNL1        0.0451
      3 C         -27.2850   11.2150    5.9670 C.ar    1  UNL1        0.2339
      4 C         -27.4340    9.7890    6.1760 C.ar    1  UNL1        0.2300
      5 C         -28.6660    9.2550    6.6980 C.ar    1  UNL1        0.0185
      6 C         -29.7350   10.1120    7.0120 C.ar    1  UNL1        0.0084
      7 C         -28.8100    7.7460    6.9170 C.3     1  UNL1        0.0310
      8 C         -30.2510    7.1440    6.9240 C.3     1  UNL1        0.0251
      9 C         -31.4310    8.1430    6.8810 C.3     1  UNL1        0.1077
     10 C         -31.0420    9.5060    7.5700 C.3     1  UNL1        0.1899
     11 C         -33.4880    6.7640    6.5400 C.3     1  UNL1        0.1075
     12 N         -32.6560    7.5500    7.4710 N.3     1  UNL1       -0.2150
     13 O         -26.4290    8.9810    5.8850 O.3     1  UNL1       -0.2835
     14 O         -26.1330   11.6750    5.4820 O.3     1  UNL1       -0.2832
     15 O         -32.0970   10.3900    7.3620 O.3     1  UNL1       -0.2168
@<TRIPOS>BOND
     1     2     1   ar
     2     3     2   ar
     3     4     3   ar
     4     5     4   ar
     5     6     5   ar
     6     6     1   ar
     7     7     5    1
     8     8     7    1
     9     9     8    1
    10    10     9    1
    11    10     6    1
    12    12    11    1
    13     9    12    1
    14    13     4    1
    15    14     3    1
    16    10    15    1
