@<TRIPOS>MOLECULE
8GGU_G1I_R501
 15 16 0 0 0
SMALL
GASTEIGER

@<TRIPOS>ATOM
      1 C         -29.7580   11.5120    6.7130 C.ar    1  UNL1        0.0014
      2 C         -28.5750   11.9800    6.1700 C.ar    1  UNL1        0.0451
      3 C         -27.4920   11.1230    5.9170 C.ar    1  UNL1        0.2339
      4 C         -27.6670    9.7210    6.2500 C.ar    1  UNL1        0.2300
      5 C         -28.9090    9.2530    6.8130 C.ar    1  UNL1        0.0185
      6 C         -29.9640   10.1570    7.0510 C.ar    1  UNL1        0.0084
      7 C         -29.0730    7.7660    7.1610 C.3     1  UNL1        0.0310
      8 C         -30.5250    7.2030    7.3350 C.3     1  UNL1        0.0251
      9 C         -31.6740    8.2060    7.0860 C.3     1  UNL1        0.1077
     10 C         -31.2840    9.6230    7.6570 C.3     1  UNL1        0.1899
     11 C         -33.6410    6.6930    6.8030 C.3     1  UNL1        0.1075
     12 N         -32.9650    7.7110    7.6250 N.3     1  UNL1       -0.2150
     13 O         -26.6770    8.8730    6.0320 O.3     1  UNL1       -0.2835
     14 O         -26.3300   11.5200    5.3950 O.3     1  UNL1       -0.2832
     15 O         -32.3300   10.5000    7.3740 O.3     1  UNL1       -0.2168
@<TRIPOS>BOND
     1     2     1   ar
     2     3     2   ar
     3     4     3   ar
     4     5     4   ar
     5     6     5   ar
     6     6     1   ar
     7     7     5    1
     8     8     7    1
     9     9     8    1
    10    10     9    1
    11    10     6    1
    12    12    11    1
    13     9    12    1
    14    13     4    1
    15    14     3    1
    16    10    15    1
