@<TRIPOS>MOLECULE
8UNQ_G1I_R501
 15 16 0 0 0
SMALL
GASTEIGER

@<TRIPOS>ATOM
      1 C         -29.3980   11.5840    6.8970 C.ar    1  UNL1        0.0014
      2 C         -28.1810   11.9920    6.3850 C.ar    1  UNL1        0.0451
      3 C         -27.1680   11.0680    6.0740 C.ar    1  UNL1        0.2339
      4 C         -27.4600    9.6670    6.3160 C.ar    1  UNL1        0.2300
      5 C         -28.7400    9.2670    6.8510 C.ar    1  UNL1        0.0185
      6 C         -29.7180   10.2360    7.1480 C.ar    1  UNL1        0.0084
      7 C         -29.0330    7.7780    7.1030 C.3     1  UNL1        0.0310
      8 C         -30.5310    7.3330    7.2280 C.3     1  UNL1        0.0251
      9 C         -31.5920    8.4490    7.0520 C.3     1  UNL1        0.1077
     10 C         -31.0830    9.7820    7.7160 C.3     1  UNL1        0.1899
     11 C         -33.2590    6.6060    7.4320 C.3     1  UNL1        0.1075
     12 N         -32.9320    8.0410    7.5590 N.3     1  UNL1       -0.2150
     13 O         -26.5390    8.7580    6.0400 O.3     1  UNL1       -0.2835
     14 O         -25.9770   11.4040    5.5790 O.3     1  UNL1       -0.2832
     15 O         -32.0490   10.7580    7.4870 O.3     1  UNL1       -0.2168
@<TRIPOS>BOND
     1     2     1   ar
     2     3     2   ar
     3     4     3   ar
     4     5     4   ar
     5     6     5   ar
     6     6     1   ar
     7     7     5    1
     8     8     7    1
     9     9     8    1
    10    10     9    1
    11    10     6    1
    12    12    11    1
    13     9    12    1
    14    13     4    1
    15    14     3    1
    16    10    15    1
