@<TRIPOS>MOLECULE
9I52_A1IZU_R501
 26 29 0 0 0
SMALL
GASTEIGER

@<TRIPOS>ATOM
      1 C         -31.8730    7.1260    5.9480 C.ar    1  UNL1        0.0011
      2 C         -31.5990    6.1070    6.8580 C.ar    1  UNL1        0.0118
      3 C         -30.3940    6.1120    7.5790 C.ar    1  UNL1       -0.0205
      4 C         -28.7820    9.2530    6.2140 C.ar    1  UNL1        0.0345
      5 C         -30.0390    5.0420    8.5770 C.3     1  UNL1        0.0311
      6 C         -33.6690    5.1810    7.9130 C.ar    1  UNL1        0.0519
      7 N         -34.3680    2.9910    7.2770 N.ar    1  UNL1       -0.1534
      8 C         -33.3240    2.8170    6.4060 C.ar    1  UNL1        0.3528
      9 C         -33.9010    6.4130    8.7370 C.3     1  UNL1        0.0376
     10 C         -29.1610   10.6270    6.3660 C.ar    1  UNL1        0.1478
     11 C         -26.5460   10.0100    5.6310 C.ar    1  UNL1        0.0191
     12 C         -26.9030   11.3000    5.7760 C.ar    1  UNL1        0.0815
     13 C         -28.8250   12.8160    6.3560 C.ar    1  UNL1        0.1022
     14 C         -29.4930    7.1460    7.3470 C.ar    1  UNL1       -0.0041
     15 C         -34.6170    4.1010    8.0490 C.ar    1  UNL1        0.2804
     16 C         -31.3030    3.7230    5.3810 C.3     1  UNL1        0.1351
     17 C         -27.4850    8.9880    5.8500 C.ar    1  UNL1        0.0045
     18 C         -29.7610    8.1610    6.4340 C.ar    1  UNL1        0.0026
     19 C         -30.1040   12.5270    6.6970 C.ar    1  UNL1        0.1195
     20 C         -30.9590    8.1390    5.7390 C.ar    1  UNL1        0.0001
     21 C         -32.6080    5.0410    7.0540 C.ar    1  UNL1        0.0643
     22 N         -32.4330    3.8730    6.3020 N.ar    1  UNL1       -0.2781
     23 N         -28.2060   11.6010    6.1420 N.ar    1  UNL1       -0.2874
     24 N         -30.3230   11.1690    6.7040 N.ar    1  UNL1       -0.2248
     25 O         -33.1850    1.7890    5.7590 O.2     1  UNL1       -0.2443
     26 O         -35.5940    4.1340    8.7950 O.2     1  UNL1       -0.2654
@<TRIPOS>BOND
     1     2     1   ar
     2     3     2   ar
     3     5     3    1
     4     8     7   ar
     5     9     6    1
     6    10     4   ar
     7    12    11   ar
     8    14     3   ar
     9    15     7   ar
    10    15     6   ar
    11    17     4   ar
    12    17    11   ar
    13    18    14   ar
    14    18     4    1
    15    19    13   ar
    16    20    18   ar
    17    20     1   ar
    18    21     6   ar
    19    21     2    1
    20    22     8   ar
    21    22    16    1
    22    22    21   ar
    23    23    10   ar
    24    23    13   ar
    25    23    12   ar
    26    24    10   ar
    27    24    19   ar
    28    25     8    2
    29    26    15    2
