Z1741977105
     RDKit          3D

 57 60  0  0  0  0  0  0  0  0999 V2000
    7.6366   -0.5981    1.3426 C   0  0  0  0  0  0  0  0  0  0  0  0
    7.3455   -0.9846    0.0075 O   0  0  0  0  0  0  0  0  0  0  0  0
    6.0375   -0.9159   -0.4091 C   0  0  0  0  0  0  0  0  0  0  0  0
    4.9732   -0.5012    0.4079 C   0  0  0  0  0  0  0  0  0  0  0  0
    5.8006   -1.3043   -1.7577 C   0  0  0  0  0  0  0  0  0  0  0  0
    6.9084   -1.6964   -2.4705 O   0  0  0  0  0  0  0  0  0  0  0  0
    6.7134   -2.0990   -3.8193 C   0  0  0  0  0  0  0  0  0  0  0  0
    4.5044   -1.2724   -2.2792 C   0  0  0  0  0  0  0  0  0  0  0  0
    3.4870   -0.8527   -1.4423 C   0  0  0  0  0  0  0  0  0  0  0  0
    3.6940   -0.4703   -0.1259 C   0  0  0  0  0  0  0  0  0  0  0  0
    2.0687   -0.7193   -1.7432 C   0  0  0  0  0  0  0  0  0  0  0  0
    1.5695   -1.0369   -2.8083 O   0  0  0  0  0  0  0  0  0  0  0  0
    1.3579   -0.0983   -0.5530 C   0  0  0  0  0  0  0  0  0  0  0  0
    2.4207   -0.1041    0.5704 C   0  0  0  0  0  0  0  0  0  0  0  0
    0.0815   -0.8698   -0.2046 C   0  0  0  0  0  0  0  0  0  0  0  0
   -0.7166   -0.2823    0.9779 C   0  0  0  0  0  0  0  0  0  0  0  0
   -1.9373   -1.1628    1.3101 C   0  0  0  0  0  0  0  0  0  0  0  0
   -3.2161   -0.6196    0.6724 C   0  0  0  0  0  0  0  0  0  0  0  0
   -3.5642    0.7192    1.1796 N   0  0  0  0  0  0  0  0  0  0  0  0
   -2.3927    1.5437    1.5064 C   0  0  0  0  0  0  0  0  0  0  0  0
   -1.1438    1.1721    0.7091 C   0  0  0  0  0  0  0  0  0  0  0  0
   -4.4839    1.4205    0.2664 C   0  0  0  0  0  0  0  0  0  0  0  0
   -5.8194    0.7260    0.0962 C   0  0  0  0  0  0  0  0  0  0  0  0
   -6.2444    0.2924   -1.1677 C   0  0  0  0  0  0  0  0  0  0  0  0
   -7.4807   -0.3381   -1.3209 C   0  0  0  0  0  0  0  0  0  0  0  0
   -8.3044   -0.5400   -0.2147 C   0  0  0  0  0  0  0  0  0  0  0  0
   -7.8933   -0.1130    1.0465 C   0  0  0  0  0  0  0  0  0  0  0  0
   -6.6583    0.5177    1.2015 C   0  0  0  0  0  0  0  0  0  0  0  0
    8.7149   -0.7060    1.4949 H   0  0  0  0  0  0  0  0  0  0  0  0
    7.1327   -1.2523    2.0616 H   0  0  0  0  0  0  0  0  0  0  0  0
    7.3807    0.4525    1.5149 H   0  0  0  0  0  0  0  0  0  0  0  0
    5.1192   -0.2100    1.4416 H   0  0  0  0  0  0  0  0  0  0  0  0
    6.3251   -1.2737   -4.4253 H   0  0  0  0  0  0  0  0  0  0  0  0
    6.0616   -2.9769   -3.8797 H   0  0  0  0  0  0  0  0  0  0  0  0
    7.6886   -2.3811   -4.2281 H   0  0  0  0  0  0  0  0  0  0  0  0
    4.2645   -1.5551   -3.2969 H   0  0  0  0  0  0  0  0  0  0  0  0
    1.1264    0.9367   -0.8335 H   0  0  0  0  0  0  0  0  0  0  0  0
    2.2002   -0.8491    1.3424 H   0  0  0  0  0  0  0  0  0  0  0  0
    2.4939    0.8837    1.0369 H   0  0  0  0  0  0  0  0  0  0  0  0
   -0.5660   -0.9127   -1.0906 H   0  0  0  0  0  0  0  0  0  0  0  0
    0.3453   -1.9124    0.0195 H   0  0  0  0  0  0  0  0  0  0  0  0
   -0.0689   -0.2940    1.8641 H   0  0  0  0  0  0  0  0  0  0  0  0
   -1.7732   -2.2001    0.9956 H   0  0  0  0  0  0  0  0  0  0  0  0
   -2.0704   -1.1957    2.4000 H   0  0  0  0  0  0  0  0  0  0  0  0
   -3.0821   -0.6091   -0.4176 H   0  0  0  0  0  0  0  0  0  0  0  0
   -4.0357   -1.3135    0.8922 H   0  0  0  0  0  0  0  0  0  0  0  0
   -2.6026    2.6136    1.3855 H   0  0  0  0  0  0  0  0  0  0  0  0
   -2.1784    1.4111    2.5748 H   0  0  0  0  0  0  0  0  0  0  0  0
   -1.3410    1.3284   -0.3595 H   0  0  0  0  0  0  0  0  0  0  0  0
   -0.3239    1.8491    0.9775 H   0  0  0  0  0  0  0  0  0  0  0  0
   -4.7091    2.4208    0.6608 H   0  0  0  0  0  0  0  0  0  0  0  0
   -4.0071    1.5772   -0.7103 H   0  0  0  0  0  0  0  0  0  0  0  0
   -5.6135    0.4403   -2.0409 H   0  0  0  0  0  0  0  0  0  0  0  0
   -7.8009   -0.6726   -2.3041 H   0  0  0  0  0  0  0  0  0  0  0  0
   -9.2657   -1.0319   -0.3351 H   0  0  0  0  0  0  0  0  0  0  0  0
   -8.5321   -0.2729    1.9108 H   0  0  0  0  0  0  0  0  0  0  0  0
   -6.3397    0.8410    2.1904 H   0  0  0  0  0  0  0  0  0  0  0  0
  1  2  1  0
  2  3  1  0
  3  4  2  0
  3  5  1  0
  5  6  1  0
  6  7  1  0
  5  8  2  0
  8  9  1  0
  9 10  2  0
  9 11  1  0
 11 12  2  0
 11 13  1  0
 13 14  1  0
 13 15  1  0
 15 16  1  0
 16 17  1  0
 17 18  1  0
 18 19  1  0
 19 20  1  0
 20 21  1  0
 19 22  1  0
 22 23  1  0
 23 24  2  0
 24 25  1  0
 25 26  2  0
 26 27  1  0
 27 28  2  0
 10  4  1  0
 14 10  1  0
 21 16  1  0
 28 23  1  0
  1 29  1  0
  1 30  1  0
  1 31  1  0
  4 32  1  0
  7 33  1  0
  7 34  1  0
  7 35  1  0
  8 36  1  0
 13 37  1  0
 14 38  1  0
 14 39  1  0
 15 40  1  0
 15 41  1  0
 16 42  1  0
 17 43  1  0
 17 44  1  0
 18 45  1  0
 18 46  1  0
 20 47  1  0
 20 48  1  0
 21 49  1  0
 21 50  1  0
 22 51  1  0
 22 52  1  0
 24 53  1  0
 25 54  1  0
 26 55  1  0
 27 56  1  0
 28 57  1  0
M  END
>  <mol_id>  (1) 
Z1741977105

>  <drugclip_rank>  (1) 
1

>  <conformer>  (1) 
18

>  <align_rmsd>  (1) 
0.522

$$$$
Z4580714056
     RDKit          3D

 57 59  0  0  0  0  0  0  0  0999 V2000
    0.7198   -0.2647   -0.0950 Cl  0  0  0  0  0  0  0  0  0  0  0  0
    7.6194   -0.7726    1.4527 C   0  0  0  0  0  0  0  0  0  0  0  0
    7.2082   -1.0707    0.1382 O   0  0  0  0  0  0  0  0  0  0  0  0
    5.9043   -0.9569   -0.3160 C   0  0  0  0  0  0  0  0  0  0  0  0
    4.8678   -0.5335    0.4902 C   0  0  0  0  0  0  0  0  0  0  0  0
    5.6664   -1.2879   -1.6321 C   0  0  0  0  0  0  0  0  0  0  0  0
    6.6985   -1.7156   -2.4560 O   0  0  0  0  0  0  0  0  0  0  0  0
    6.3697   -2.0368   -3.7963 C   0  0  0  0  0  0  0  0  0  0  0  0
    4.3843   -1.1912   -2.1320 C   0  0  0  0  0  0  0  0  0  0  0  0
    3.3514   -0.7620   -1.3027 C   0  0  0  0  0  0  0  0  0  0  0  0
    3.5599   -0.4244    0.0172 C   0  0  0  0  0  0  0  0  0  0  0  0
    1.9438   -0.6008   -1.6510 C   0  0  0  0  0  0  0  0  0  0  0  0
    1.4076   -0.8143   -2.7485 O   0  0  0  0  0  0  0  0  0  0  0  0
    1.2985   -0.1327   -0.4276 C   0  0  0  0  0  0  0  0  0  0  0  0
    2.2944   -0.0017    0.6671 C   0  0  0  0  0  0  0  0  0  0  0  0
   -0.0119    0.1454   -0.2923 C   0  0  0  0  0  0  0  0  0  0  0  0
   -0.4904    0.6096    1.0242 C   0  0  0  0  0  0  0  0  0  0  0  0
   -1.5440   -0.2998    1.5469 C   0  0  0  0  0  0  0  0  0  0  0  0
   -2.9504    0.0950    1.2997 C   0  0  0  0  0  0  0  0  0  0  0  0
   -3.2183    1.0553    0.3092 N   0  0  0  0  0  0  0  0  0  0  0  0
   -2.1900    1.9097   -0.1420 C   0  0  0  0  0  0  0  0  0  0  0  0
   -1.0829    1.9834    0.8699 C   0  0  0  0  0  0  0  0  0  0  0  0
   -4.4907    1.7076    0.4238 C   0  0  0  0  0  0  0  0  0  0  0  0
   -5.5671    0.7096    0.3370 C   0  0  0  0  0  0  0  0  0  0  0  0
   -6.0728    0.4255   -0.9351 C   0  0  0  0  0  0  0  0  0  0  0  0
   -7.0828   -0.4944   -1.1295 C   0  0  0  0  0  0  0  0  0  0  0  0
   -7.6151   -1.1554   -0.0566 C   0  0  0  0  0  0  0  0  0  0  0  0
   -7.1263   -0.8880    1.2203 C   0  0  0  0  0  0  0  0  0  0  0  0
   -6.1127    0.0394    1.3873 C   0  0  0  0  0  0  0  0  0  0  0  0
   -0.6375   -0.1133   -0.0178 H   0  0  0  0  0  0  0  0  0  0  0  0
    7.0926    0.1396    1.8531 H   0  0  0  0  0  0  0  0  0  0  0  0
    7.4840   -1.6500    2.0993 H   0  0  0  0  0  0  0  0  0  0  0  0
    8.7307   -0.5860    1.3819 H   0  0  0  0  0  0  0  0  0  0  0  0
    5.0730   -0.2775    1.5229 H   0  0  0  0  0  0  0  0  0  0  0  0
    5.8922   -1.1479   -4.3021 H   0  0  0  0  0  0  0  0  0  0  0  0
    7.2507   -2.3485   -4.3737 H   0  0  0  0  0  0  0  0  0  0  0  0
    5.5726   -2.8286   -3.7539 H   0  0  0  0  0  0  0  0  0  0  0  0
    4.2008   -1.4463   -3.1472 H   0  0  0  0  0  0  0  0  0  0  0  0
    2.4100    1.0788    0.9399 H   0  0  0  0  0  0  0  0  0  0  0  0
    2.0498   -0.6248    1.5479 H   0  0  0  0  0  0  0  0  0  0  0  0
   -0.6049   -0.0048   -1.1653 H   0  0  0  0  0  0  0  0  0  0  0  0
    0.3403    0.6132    1.7766 H   0  0  0  0  0  0  0  0  0  0  0  0
   -1.3352   -0.5479    2.6215 H   0  0  0  0  0  0  0  0  0  0  0  0
   -1.4062   -1.2958    1.0292 H   0  0  0  0  0  0  0  0  0  0  0  0
   -3.6047   -0.8190    1.1710 H   0  0  0  0  0  0  0  0  0  0  0  0
   -3.3306    0.5247    2.2748 H   0  0  0  0  0  0  0  0  0  0  0  0
   -1.7773    1.5793   -1.1368 H   0  0  0  0  0  0  0  0  0  0  0  0
   -2.6561    2.9217   -0.3011 H   0  0  0  0  0  0  0  0  0  0  0  0
   -1.5497    2.2354    1.8470 H   0  0  0  0  0  0  0  0  0  0  0  0
   -0.3097    2.7336    0.5916 H   0  0  0  0  0  0  0  0  0  0  0  0
   -4.4961    2.2692    1.3818 H   0  0  0  0  0  0  0  0  0  0  0  0
   -4.5918    2.4577   -0.3953 H   0  0  0  0  0  0  0  0  0  0  0  0
   -5.6690    0.9376   -1.8184 H   0  0  0  0  0  0  0  0  0  0  0  0
   -7.4260   -0.6625   -2.1566 H   0  0  0  0  0  0  0  0  0  0  0  0
   -8.4049   -1.8697   -0.2403 H   0  0  0  0  0  0  0  0  0  0  0  0
   -7.5669   -1.4284    2.0643 H   0  0  0  0  0  0  0  0  0  0  0  0
   -5.7202    0.2582    2.3856 H   0  0  0  0  0  0  0  0  0  0  0  0
  2  3  1  0
  3  4  1  0
  4  5  2  0
  4  6  1  0
  6  7  1  0
  7  8  1  0
  6  9  2  0
  9 10  1  0
 10 11  2  0
 10 12  1  0
 12 13  2  0
 12 14  1  0
 14 15  1  0
 14 16  2  0
 16 17  1  0
 17 18  1  0
 18 19  1  0
 19 20  1  0
 20 21  1  0
 21 22  1  0
 20 23  1  0
 23 24  1  0
 24 25  2  0
 25 26  1  0
 26 27  2  0
 27 28  1  0
 28 29  2  0
 11  5  1  0
 15 11  1  0
 22 17  1  0
 29 24  1  0
  1 30  1  0
  2 31  1  0
  2 32  1  0
  2 33  1  0
  5 34  1  0
  8 35  1  0
  8 36  1  0
  8 37  1  0
  9 38  1  0
 15 39  1  0
 15 40  1  0
 16 41  1  0
 17 42  1  0
 18 43  1  0
 18 44  1  0
 19 45  1  0
 19 46  1  0
 21 47  1  0
 21 48  1  0
 22 49  1  0
 22 50  1  0
 23 51  1  0
 23 52  1  0
 25 53  1  0
 26 54  1  0
 27 55  1  0
 28 56  1  0
 29 57  1  0
M  END
>  <mol_id>  (2) 
Z4580714056

>  <drugclip_rank>  (2) 
2

>  <conformer>  (2) 
27

>  <align_rmsd>  (2) 
0.54

$$$$
OSSM_117313
     RDKit          3D

 65 70  0  0  0  0  0  0  0  0999 V2000
    6.7180    0.6198    2.0507 C   0  0  0  0  0  0  0  0  0  0  0  0
    8.0604    0.5803    2.7850 C   0  0  0  0  0  0  0  0  0  0  0  0
    9.2045    0.9344    1.8491 C   0  0  0  0  0  0  0  0  0  0  0  0
    9.2592   -0.0401    0.6735 C   0  0  0  0  0  0  0  0  0  0  0  0
    7.9070   -0.3295    0.0705 C   0  0  0  0  0  0  0  0  0  0  0  0
    7.9474   -0.9924   -1.2563 C   0  0  0  0  0  0  0  0  0  0  0  0
    6.7315   -1.2641   -1.8556 O   0  0  0  0  0  0  0  0  0  0  0  0
    9.0066   -1.2969   -1.7950 O   0  0  0  0  0  0  0  0  0  0  0  0
    6.7464   -0.0103    0.6757 C   0  0  0  0  0  0  0  0  0  0  0  0
    5.4746   -0.2814   -0.0174 C   0  0  0  0  0  0  0  0  0  0  0  0
    5.5001   -0.9136   -1.2626 C   0  0  0  0  0  0  0  0  0  0  0  0
    4.2233    0.0761    0.5002 C   0  0  0  0  0  0  0  0  0  0  0  0
    3.0390   -0.1913   -0.2079 C   0  0  0  0  0  0  0  0  0  0  0  0
    3.1015   -0.8510   -1.4396 C   0  0  0  0  0  0  0  0  0  0  0  0
    4.3351   -1.2243   -1.9870 C   0  0  0  0  0  0  0  0  0  0  0  0
    4.4274   -1.8820   -3.3359 C   0  0  0  0  0  0  0  0  0  0  0  0
    1.9720   -1.1182   -2.1675 O   0  0  0  0  0  0  0  0  0  0  0  0
    0.7396   -0.9721   -1.4465 C   0  0  0  0  0  0  0  0  0  0  0  0
    0.6727    0.2569   -0.6644 N   0  0  0  0  0  0  0  0  0  0  0  0
    1.7038    0.1968    0.3706 C   0  0  0  0  0  0  0  0  0  0  0  0
   -0.6552    0.5964   -0.1173 C   0  0  0  0  0  0  0  0  0  0  0  0
   -1.6644    0.9544   -1.2165 C   0  0  0  0  0  0  0  0  0  0  0  0
   -2.9475    1.5440   -0.6089 C   0  0  0  0  0  0  0  0  0  0  0  0
   -1.2767   -0.4331    0.8534 C   0  0  0  0  0  0  0  0  0  0  0  0
   -2.8097   -0.3532    0.9113 C   0  0  0  0  0  0  0  0  0  0  0  0
   -3.2547    1.0198    0.7255 N   0  0  0  0  0  0  0  0  0  0  0  0
   -4.6275    1.2903    1.1711 C   0  0  0  0  0  0  0  0  0  0  0  0
   -5.7379    0.5406    0.4634 C   0  0  0  0  0  0  0  0  0  0  0  0
   -6.4108    1.1174   -0.6244 C   0  0  0  0  0  0  0  0  0  0  0  0
   -7.4352    0.4280   -1.2761 C   0  0  0  0  0  0  0  0  0  0  0  0
   -7.8036   -0.8444   -0.8453 C   0  0  0  0  0  0  0  0  0  0  0  0
   -7.1513   -1.4268    0.2391 C   0  0  0  0  0  0  0  0  0  0  0  0
   -6.1266   -0.7381    0.8910 C   0  0  0  0  0  0  0  0  0  0  0  0
    6.3993    1.6653    1.9499 H   0  0  0  0  0  0  0  0  0  0  0  0
    5.9860    0.1129    2.6909 H   0  0  0  0  0  0  0  0  0  0  0  0
    8.2236   -0.4230    3.1989 H   0  0  0  0  0  0  0  0  0  0  0  0
    8.0371    1.2737    3.6333 H   0  0  0  0  0  0  0  0  0  0  0  0
    9.0717    1.9577    1.4763 H   0  0  0  0  0  0  0  0  0  0  0  0
   10.1566    0.9133    2.3908 H   0  0  0  0  0  0  0  0  0  0  0  0
    9.6999   -0.9875    1.0092 H   0  0  0  0  0  0  0  0  0  0  0  0
    9.9342    0.3804   -0.0816 H   0  0  0  0  0  0  0  0  0  0  0  0
    4.1422    0.5863    1.4565 H   0  0  0  0  0  0  0  0  0  0  0  0
    4.6605   -1.1337   -4.0999 H   0  0  0  0  0  0  0  0  0  0  0  0
    3.4949   -2.3839   -3.6128 H   0  0  0  0  0  0  0  0  0  0  0  0
    5.2038   -2.6545   -3.3425 H   0  0  0  0  0  0  0  0  0  0  0  0
    0.5950   -1.8747   -0.8392 H   0  0  0  0  0  0  0  0  0  0  0  0
   -0.0370   -0.9810   -2.2163 H   0  0  0  0  0  0  0  0  0  0  0  0
    1.7975    1.1839    0.8398 H   0  0  0  0  0  0  0  0  0  0  0  0
    1.4530   -0.5308    1.1526 H   0  0  0  0  0  0  0  0  0  0  0  0
   -0.5130    1.5257    0.4553 H   0  0  0  0  0  0  0  0  0  0  0  0
   -1.2354    1.6776   -1.9208 H   0  0  0  0  0  0  0  0  0  0  0  0
   -1.9295    0.0604   -1.7945 H   0  0  0  0  0  0  0  0  0  0  0  0
   -2.8335    2.6322   -0.5291 H   0  0  0  0  0  0  0  0  0  0  0  0
   -3.7547    1.3606   -1.3258 H   0  0  0  0  0  0  0  0  0  0  0  0
   -1.0114   -1.4608    0.5848 H   0  0  0  0  0  0  0  0  0  0  0  0
   -0.8643   -0.2604    1.8560 H   0  0  0  0  0  0  0  0  0  0  0  0
   -3.1249   -0.7430    1.8870 H   0  0  0  0  0  0  0  0  0  0  0  0
   -3.2420   -1.0128    0.1479 H   0  0  0  0  0  0  0  0  0  0  0  0
   -4.8217    2.3691    1.0983 H   0  0  0  0  0  0  0  0  0  0  0  0
   -4.6985    1.0808    2.2473 H   0  0  0  0  0  0  0  0  0  0  0  0
   -6.1385    2.1117   -0.9717 H   0  0  0  0  0  0  0  0  0  0  0  0
   -7.9459    0.8851   -2.1196 H   0  0  0  0  0  0  0  0  0  0  0  0
   -8.6014   -1.3806   -1.3524 H   0  0  0  0  0  0  0  0  0  0  0  0
   -7.4417   -2.4173    0.5792 H   0  0  0  0  0  0  0  0  0  0  0  0
   -5.6332   -1.2051    1.7400 H   0  0  0  0  0  0  0  0  0  0  0  0
  1  2  1  0
  2  3  1  0
  3  4  1  0
  4  5  1  0
  5  6  1  0
  6  7  1  0
  6  8  2  0
  5  9  2  0
  9 10  1  0
 10 11  2  0
 10 12  1  0
 12 13  2  0
 13 14  1  0
 14 15  2  0
 15 16  1  0
 14 17  1  0
 17 18  1  0
 18 19  1  0
 19 20  1  0
 19 21  1  0
 21 22  1  0
 22 23  1  0
 21 24  1  0
 24 25  1  0
 25 26  1  0
 26 27  1  0
 27 28  1  0
 28 29  2  0
 29 30  1  0
 30 31  2  0
 31 32  1  0
 32 33  2  0
  9  1  1  0
 11  7  1  0
 15 11  1  0
 20 13  1  0
 26 23  1  0
 33 28  1  0
  1 34  1  0
  1 35  1  0
  2 36  1  0
  2 37  1  0
  3 38  1  0
  3 39  1  0
  4 40  1  0
  4 41  1  0
 12 42  1  0
 16 43  1  0
 16 44  1  0
 16 45  1  0
 18 46  1  0
 18 47  1  0
 20 48  1  0
 20 49  1  0
 21 50  1  0
 22 51  1  0
 22 52  1  0
 23 53  1  0
 23 54  1  0
 24 55  1  0
 24 56  1  0
 25 57  1  0
 25 58  1  0
 27 59  1  0
 27 60  1  0
 29 61  1  0
 30 62  1  0
 31 63  1  0
 32 64  1  0
 33 65  1  0
M  END
>  <mol_id>  (3) 
OSSM_117313

>  <drugclip_rank>  (3) 
3

>  <conformer>  (3) 
29

>  <align_rmsd>  (3) 
0.579

$$$$
STK614978
     RDKit          3D

 65 70  0  0  0  0  0  0  0  0999 V2000
    6.7180    0.6198    2.0507 C   0  0  0  0  0  0  0  0  0  0  0  0
    8.0604    0.5803    2.7850 C   0  0  0  0  0  0  0  0  0  0  0  0
    9.2045    0.9344    1.8491 C   0  0  0  0  0  0  0  0  0  0  0  0
    9.2592   -0.0401    0.6735 C   0  0  0  0  0  0  0  0  0  0  0  0
    7.9070   -0.3295    0.0705 C   0  0  0  0  0  0  0  0  0  0  0  0
    7.9474   -0.9924   -1.2563 C   0  0  0  0  0  0  0  0  0  0  0  0
    6.7315   -1.2641   -1.8556 O   0  0  0  0  0  0  0  0  0  0  0  0
    9.0066   -1.2969   -1.7950 O   0  0  0  0  0  0  0  0  0  0  0  0
    6.7464   -0.0103    0.6757 C   0  0  0  0  0  0  0  0  0  0  0  0
    5.4746   -0.2814   -0.0174 C   0  0  0  0  0  0  0  0  0  0  0  0
    5.5001   -0.9136   -1.2626 C   0  0  0  0  0  0  0  0  0  0  0  0
    4.2233    0.0761    0.5002 C   0  0  0  0  0  0  0  0  0  0  0  0
    3.0390   -0.1913   -0.2079 C   0  0  0  0  0  0  0  0  0  0  0  0
    3.1015   -0.8510   -1.4396 C   0  0  0  0  0  0  0  0  0  0  0  0
    4.3351   -1.2243   -1.9870 C   0  0  0  0  0  0  0  0  0  0  0  0
    4.4274   -1.8820   -3.3359 C   0  0  0  0  0  0  0  0  0  0  0  0
    1.9720   -1.1182   -2.1675 O   0  0  0  0  0  0  0  0  0  0  0  0
    0.7396   -0.9721   -1.4465 C   0  0  0  0  0  0  0  0  0  0  0  0
    0.6727    0.2569   -0.6644 N   0  0  0  0  0  0  0  0  0  0  0  0
    1.7038    0.1968    0.3706 C   0  0  0  0  0  0  0  0  0  0  0  0
   -0.6552    0.5964   -0.1173 C   0  0  0  0  0  0  0  0  0  0  0  0
   -1.6644    0.9544   -1.2165 C   0  0  0  0  0  0  0  0  0  0  0  0
   -2.9475    1.5440   -0.6089 C   0  0  0  0  0  0  0  0  0  0  0  0
   -1.2767   -0.4331    0.8534 C   0  0  0  0  0  0  0  0  0  0  0  0
   -2.8097   -0.3532    0.9113 C   0  0  0  0  0  0  0  0  0  0  0  0
   -3.2547    1.0198    0.7255 N   0  0  0  0  0  0  0  0  0  0  0  0
   -4.6275    1.2903    1.1711 C   0  0  0  0  0  0  0  0  0  0  0  0
   -5.7379    0.5406    0.4634 C   0  0  0  0  0  0  0  0  0  0  0  0
   -6.4108    1.1174   -0.6244 C   0  0  0  0  0  0  0  0  0  0  0  0
   -7.4352    0.4280   -1.2761 C   0  0  0  0  0  0  0  0  0  0  0  0
   -7.8036   -0.8444   -0.8453 C   0  0  0  0  0  0  0  0  0  0  0  0
   -7.1513   -1.4268    0.2391 C   0  0  0  0  0  0  0  0  0  0  0  0
   -6.1266   -0.7381    0.8910 C   0  0  0  0  0  0  0  0  0  0  0  0
    6.3993    1.6653    1.9499 H   0  0  0  0  0  0  0  0  0  0  0  0
    5.9860    0.1129    2.6909 H   0  0  0  0  0  0  0  0  0  0  0  0
    8.2236   -0.4230    3.1989 H   0  0  0  0  0  0  0  0  0  0  0  0
    8.0371    1.2737    3.6333 H   0  0  0  0  0  0  0  0  0  0  0  0
    9.0717    1.9577    1.4763 H   0  0  0  0  0  0  0  0  0  0  0  0
   10.1566    0.9133    2.3908 H   0  0  0  0  0  0  0  0  0  0  0  0
    9.6999   -0.9875    1.0092 H   0  0  0  0  0  0  0  0  0  0  0  0
    9.9342    0.3804   -0.0816 H   0  0  0  0  0  0  0  0  0  0  0  0
    4.1422    0.5863    1.4565 H   0  0  0  0  0  0  0  0  0  0  0  0
    4.6605   -1.1337   -4.0999 H   0  0  0  0  0  0  0  0  0  0  0  0
    3.4949   -2.3839   -3.6128 H   0  0  0  0  0  0  0  0  0  0  0  0
    5.2038   -2.6545   -3.3425 H   0  0  0  0  0  0  0  0  0  0  0  0
    0.5950   -1.8747   -0.8392 H   0  0  0  0  0  0  0  0  0  0  0  0
   -0.0370   -0.9810   -2.2163 H   0  0  0  0  0  0  0  0  0  0  0  0
    1.7975    1.1839    0.8398 H   0  0  0  0  0  0  0  0  0  0  0  0
    1.4530   -0.5308    1.1526 H   0  0  0  0  0  0  0  0  0  0  0  0
   -0.5130    1.5257    0.4553 H   0  0  0  0  0  0  0  0  0  0  0  0
   -1.2354    1.6776   -1.9208 H   0  0  0  0  0  0  0  0  0  0  0  0
   -1.9295    0.0604   -1.7945 H   0  0  0  0  0  0  0  0  0  0  0  0
   -2.8335    2.6322   -0.5291 H   0  0  0  0  0  0  0  0  0  0  0  0
   -3.7547    1.3606   -1.3258 H   0  0  0  0  0  0  0  0  0  0  0  0
   -1.0114   -1.4608    0.5848 H   0  0  0  0  0  0  0  0  0  0  0  0
   -0.8643   -0.2604    1.8560 H   0  0  0  0  0  0  0  0  0  0  0  0
   -3.1249   -0.7430    1.8870 H   0  0  0  0  0  0  0  0  0  0  0  0
   -3.2420   -1.0128    0.1479 H   0  0  0  0  0  0  0  0  0  0  0  0
   -4.8217    2.3691    1.0983 H   0  0  0  0  0  0  0  0  0  0  0  0
   -4.6985    1.0808    2.2473 H   0  0  0  0  0  0  0  0  0  0  0  0
   -6.1385    2.1117   -0.9717 H   0  0  0  0  0  0  0  0  0  0  0  0
   -7.9459    0.8851   -2.1196 H   0  0  0  0  0  0  0  0  0  0  0  0
   -8.6014   -1.3806   -1.3524 H   0  0  0  0  0  0  0  0  0  0  0  0
   -7.4417   -2.4173    0.5792 H   0  0  0  0  0  0  0  0  0  0  0  0
   -5.6332   -1.2051    1.7400 H   0  0  0  0  0  0  0  0  0  0  0  0
  1  2  1  0
  2  3  1  0
  3  4  1  0
  4  5  1  0
  5  6  1  0
  6  7  1  0
  6  8  2  0
  5  9  2  0
  9 10  1  0
 10 11  2  0
 10 12  1  0
 12 13  2  0
 13 14  1  0
 14 15  2  0
 15 16  1  0
 14 17  1  0
 17 18  1  0
 18 19  1  0
 19 20  1  0
 19 21  1  0
 21 22  1  0
 22 23  1  0
 21 24  1  0
 24 25  1  0
 25 26  1  0
 26 27  1  0
 27 28  1  0
 28 29  2  0
 29 30  1  0
 30 31  2  0
 31 32  1  0
 32 33  2  0
  9  1  1  0
 11  7  1  0
 15 11  1  0
 20 13  1  0
 26 23  1  0
 33 28  1  0
  1 34  1  0
  1 35  1  0
  2 36  1  0
  2 37  1  0
  3 38  1  0
  3 39  1  0
  4 40  1  0
  4 41  1  0
 12 42  1  0
 16 43  1  0
 16 44  1  0
 16 45  1  0
 18 46  1  0
 18 47  1  0
 20 48  1  0
 20 49  1  0
 21 50  1  0
 22 51  1  0
 22 52  1  0
 23 53  1  0
 23 54  1  0
 24 55  1  0
 24 56  1  0
 25 57  1  0
 25 58  1  0
 27 59  1  0
 27 60  1  0
 29 61  1  0
 30 62  1  0
 31 63  1  0
 32 64  1  0
 33 65  1  0
M  END
>  <mol_id>  (4) 
STK614978

>  <drugclip_rank>  (4) 
4

>  <conformer>  (4) 
29

>  <align_rmsd>  (4) 
0.579

$$$$
Z8679812633
     RDKit          3D

 58 61  0  0  0  0  0  0  0  0999 V2000
    8.0129   -0.4101    1.0735 C   0  0  0  0  0  0  0  0  0  0  0  0
    7.5388   -0.9487   -0.1517 O   0  0  0  0  0  0  0  0  0  0  0  0
    6.2087   -0.7793   -0.4540 C   0  0  0  0  0  0  0  0  0  0  0  0
    5.2884   -0.1293    0.3845 C   0  0  0  0  0  0  0  0  0  0  0  0
    5.7884   -1.3171   -1.7025 C   0  0  0  0  0  0  0  0  0  0  0  0
    6.7642   -1.9351   -2.4469 O   0  0  0  0  0  0  0  0  0  0  0  0
    6.3788   -2.5091   -3.6884 C   0  0  0  0  0  0  0  0  0  0  0  0
    4.4550   -1.1970   -2.1036 C   0  0  0  0  0  0  0  0  0  0  0  0
    3.5832   -0.5468   -1.2491 C   0  0  0  0  0  0  0  0  0  0  0  0
    3.9693   -0.0181   -0.0289 C   0  0  0  0  0  0  0  0  0  0  0  0
    2.1624   -0.2914   -1.4368 C   0  0  0  0  0  0  0  0  0  0  0  0
    1.5413   -0.6666   -2.4155 O   0  0  0  0  0  0  0  0  0  0  0  0
    1.6245    0.5115   -0.2615 C   0  0  0  0  0  0  0  0  0  0  0  0
    2.8308    0.6097    0.7094 C   0  0  0  0  0  0  0  0  0  0  0  0
    0.4188   -0.1670    0.4029 C   0  0  0  0  0  0  0  0  0  0  0  0
   -0.9118   -0.0011   -0.3625 C   0  0  0  0  0  0  0  0  0  0  0  0
   -1.9494   -1.0026    0.1797 C   0  0  0  0  0  0  0  0  0  0  0  0
   -3.3717   -0.5399   -0.1304 C   0  0  0  0  0  0  0  0  0  0  0  0
   -3.7068    0.7158    0.5658 N   0  0  0  0  0  0  0  0  0  0  0  0
   -2.5486    1.6008    0.7522 C   0  0  0  0  0  0  0  0  0  0  0  0
   -1.4625    1.4381   -0.3117 C   0  0  0  0  0  0  0  0  0  0  0  0
   -4.8203    1.4151   -0.0926 C   0  0  0  0  0  0  0  0  0  0  0  0
   -6.0902    0.6182   -0.0818 C   0  0  0  0  0  0  0  0  0  0  0  0
   -6.8374    0.1518   -1.1507 C   0  0  0  0  0  0  0  0  0  0  0  0
   -7.9601   -0.5327   -0.6330 C   0  0  0  0  0  0  0  0  0  0  0  0
   -7.8774   -0.4712    0.7390 C   0  0  0  0  0  0  0  0  0  0  0  0
   -6.7423    0.2255    1.0678 N   0  0  0  0  0  0  0  0  0  0  0  0
   -6.3053    0.4766    2.4237 C   0  0  0  0  0  0  0  0  0  0  0  0
    7.5239   -0.8863    1.9294 H   0  0  0  0  0  0  0  0  0  0  0  0
    9.0836   -0.6252    1.1412 H   0  0  0  0  0  0  0  0  0  0  0  0
    7.8901    0.6774    1.1013 H   0  0  0  0  0  0  0  0  0  0  0  0
    5.5753    0.2843    1.3444 H   0  0  0  0  0  0  0  0  0  0  0  0
    7.2672   -2.9653   -4.1359 H   0  0  0  0  0  0  0  0  0  0  0  0
    6.0139   -1.7432   -4.3807 H   0  0  0  0  0  0  0  0  0  0  0  0
    5.6355   -3.3004   -3.5446 H   0  0  0  0  0  0  0  0  0  0  0  0
    4.0784   -1.5840   -3.0426 H   0  0  0  0  0  0  0  0  0  0  0  0
    1.3817    1.5160   -0.6245 H   0  0  0  0  0  0  0  0  0  0  0  0
    2.6512    0.0732    1.6474 H   0  0  0  0  0  0  0  0  0  0  0  0
    3.0496    1.6581    0.9389 H   0  0  0  0  0  0  0  0  0  0  0  0
    0.2877    0.2341    1.4164 H   0  0  0  0  0  0  0  0  0  0  0  0
    0.6343   -1.2384    0.5136 H   0  0  0  0  0  0  0  0  0  0  0  0
   -0.7396   -0.2443   -1.4178 H   0  0  0  0  0  0  0  0  0  0  0  0
   -1.7725   -1.9876   -0.2693 H   0  0  0  0  0  0  0  0  0  0  0  0
   -1.8375   -1.1328    1.2644 H   0  0  0  0  0  0  0  0  0  0  0  0
   -3.4688   -0.4310   -1.2191 H   0  0  0  0  0  0  0  0  0  0  0  0
   -4.0709   -1.3239    0.1830 H   0  0  0  0  0  0  0  0  0  0  0  0
   -2.8512    2.6537    0.8107 H   0  0  0  0  0  0  0  0  0  0  0  0
   -2.1121    1.3755    1.7338 H   0  0  0  0  0  0  0  0  0  0  0  0
   -0.6670    2.1677   -0.1298 H   0  0  0  0  0  0  0  0  0  0  0  0
   -1.8871    1.6920   -1.2921 H   0  0  0  0  0  0  0  0  0  0  0  0
   -4.5538    1.6821   -1.1237 H   0  0  0  0  0  0  0  0  0  0  0  0
   -5.0291    2.3595    0.4271 H   0  0  0  0  0  0  0  0  0  0  0  0
   -6.5938    0.2927   -2.1959 H   0  0  0  0  0  0  0  0  0  0  0  0
   -8.7437   -1.0193   -1.1985 H   0  0  0  0  0  0  0  0  0  0  0  0
   -8.5307   -0.8714    1.5030 H   0  0  0  0  0  0  0  0  0  0  0  0
   -6.0000    1.5215    2.5134 H   0  0  0  0  0  0  0  0  0  0  0  0
   -5.4750   -0.1966    2.6483 H   0  0  0  0  0  0  0  0  0  0  0  0
   -7.1335    0.2844    3.1110 H   0  0  0  0  0  0  0  0  0  0  0  0
  1  2  1  0
  2  3  1  0
  3  4  2  0
  3  5  1  0
  5  6  1  0
  6  7  1  0
  5  8  2  0
  8  9  1  0
  9 10  2  0
  9 11  1  0
 11 12  2  0
 11 13  1  0
 13 14  1  0
 13 15  1  0
 15 16  1  0
 16 17  1  0
 17 18  1  0
 18 19  1  0
 19 20  1  0
 20 21  1  0
 19 22  1  0
 22 23  1  0
 23 24  2  0
 24 25  1  0
 25 26  2  0
 26 27  1  0
 27 28  1  0
 10  4  1  0
 14 10  1  0
 21 16  1  0
 27 23  1  0
  1 29  1  0
  1 30  1  0
  1 31  1  0
  4 32  1  0
  7 33  1  0
  7 34  1  0
  7 35  1  0
  8 36  1  0
 13 37  1  0
 14 38  1  0
 14 39  1  0
 15 40  1  0
 15 41  1  0
 16 42  1  0
 17 43  1  0
 17 44  1  0
 18 45  1  0
 18 46  1  0
 20 47  1  0
 20 48  1  0
 21 49  1  0
 21 50  1  0
 22 51  1  0
 22 52  1  0
 24 53  1  0
 25 54  1  0
 26 55  1  0
 28 56  1  0
 28 57  1  0
 28 58  1  0
M  END
>  <mol_id>  (5) 
Z8679812633

>  <drugclip_rank>  (5) 
5

>  <conformer>  (5) 
23

>  <align_rmsd>  (5) 
0.466

$$$$
Z4493401842
     RDKit          3D

 59 62  0  0  0  0  0  0  0  0999 V2000
    7.7861   -0.6612    1.2943 C   0  0  0  0  0  0  0  0  0  0  0  0
    7.4561   -1.0368   -0.0352 O   0  0  0  0  0  0  0  0  0  0  0  0
    6.1351   -0.9737   -0.4098 C   0  0  0  0  0  0  0  0  0  0  0  0
    5.0965   -0.5565    0.4390 C   0  0  0  0  0  0  0  0  0  0  0  0
    5.8573   -1.3604   -1.7511 C   0  0  0  0  0  0  0  0  0  0  0  0
    6.9431   -1.7482   -2.4992 O   0  0  0  0  0  0  0  0  0  0  0  0
    6.7065   -2.1510   -3.8411 C   0  0  0  0  0  0  0  0  0  0  0  0
    4.5457   -1.3281   -2.2325 C   0  0  0  0  0  0  0  0  0  0  0  0
    3.5535   -0.9139   -1.3629 C   0  0  0  0  0  0  0  0  0  0  0  0
    3.8003   -0.5333   -0.0530 C   0  0  0  0  0  0  0  0  0  0  0  0
    2.1244   -0.7980   -1.6155 C   0  0  0  0  0  0  0  0  0  0  0  0
    1.6104   -1.0106   -2.6998 O   0  0  0  0  0  0  0  0  0  0  0  0
    1.4139   -0.4132   -0.3286 C   0  0  0  0  0  0  0  0  0  0  0  0
    2.5607   -0.0863    0.6568 C   0  0  0  0  0  0  0  0  0  0  0  0
    0.4434    0.7491   -0.5615 C   0  0  0  0  0  0  0  0  0  0  0  0
   -0.3297    1.2015    0.6946 C   0  0  0  0  0  0  0  0  0  0  0  0
   -1.1535    0.0529    1.3036 C   0  0  0  0  0  0  0  0  0  0  0  0
   -2.3391    0.5844    2.1078 C   0  0  0  0  0  0  0  0  0  0  0  0
   -3.2909    1.3691    1.3048 N   0  0  0  0  0  0  0  0  0  0  0  0
   -2.6742    1.9996    0.1256 C   0  0  0  0  0  0  0  0  0  0  0  0
   -1.2257    2.4159    0.3815 C   0  0  0  0  0  0  0  0  0  0  0  0
   -4.4765    0.5625    0.9384 C   0  0  0  0  0  0  0  0  0  0  0  0
   -5.5972    1.3850    0.2808 C   0  0  0  0  0  0  0  0  0  0  0  0
   -6.8531    0.5731    0.0687 C   0  0  0  0  0  0  0  0  0  0  0  0
   -8.0998    1.1155    0.3760 C   0  0  0  0  0  0  0  0  0  0  0  0
   -9.2432    0.3600    0.1290 C   0  0  0  0  0  0  0  0  0  0  0  0
   -9.1158   -0.9072   -0.4259 C   0  0  0  0  0  0  0  0  0  0  0  0
   -7.8431   -1.3673   -0.7147 C   0  0  0  0  0  0  0  0  0  0  0  0
   -6.7167   -0.6568   -0.4860 N   0  0  0  0  0  0  0  0  0  0  0  0
    8.8685   -0.7702    1.4138 H   0  0  0  0  0  0  0  0  0  0  0  0
    7.5352    0.3883    1.4827 H   0  0  0  0  0  0  0  0  0  0  0  0
    7.3031   -1.3216    2.0228 H   0  0  0  0  0  0  0  0  0  0  0  0
    5.2766   -0.2469    1.4620 H   0  0  0  0  0  0  0  0  0  0  0  0
    6.2897   -1.3292   -4.4328 H   0  0  0  0  0  0  0  0  0  0  0  0
    7.6701   -2.4231   -4.2833 H   0  0  0  0  0  0  0  0  0  0  0  0
    6.0616   -3.0351   -3.8798 H   0  0  0  0  0  0  0  0  0  0  0  0
    4.2745   -1.6095   -3.2428 H   0  0  0  0  0  0  0  0  0  0  0  0
    0.8792   -1.3077    0.0145 H   0  0  0  0  0  0  0  0  0  0  0  0
    2.6296    0.9861    0.8693 H   0  0  0  0  0  0  0  0  0  0  0  0
    2.4266   -0.6298    1.5981 H   0  0  0  0  0  0  0  0  0  0  0  0
   -0.2738    0.4658   -1.3436 H   0  0  0  0  0  0  0  0  0  0  0  0
    1.0020    1.6034   -0.9682 H   0  0  0  0  0  0  0  0  0  0  0  0
    0.4019    1.5349    1.4419 H   0  0  0  0  0  0  0  0  0  0  0  0
   -0.5116   -0.5517    1.9555 H   0  0  0  0  0  0  0  0  0  0  0  0
   -1.5236   -0.6193    0.5187 H   0  0  0  0  0  0  0  0  0  0  0  0
   -1.9580    1.2369    2.9043 H   0  0  0  0  0  0  0  0  0  0  0  0
   -2.8337   -0.2457    2.6275 H   0  0  0  0  0  0  0  0  0  0  0  0
   -2.6953    1.3255   -0.7410 H   0  0  0  0  0  0  0  0  0  0  0  0
   -3.2495    2.8930   -0.1426 H   0  0  0  0  0  0  0  0  0  0  0  0
   -1.2011    3.1091    1.2333 H   0  0  0  0  0  0  0  0  0  0  0  0
   -0.8410    2.9799   -0.4763 H   0  0  0  0  0  0  0  0  0  0  0  0
   -4.1788   -0.2688    0.2857 H   0  0  0  0  0  0  0  0  0  0  0  0
   -4.8906    0.1143    1.8520 H   0  0  0  0  0  0  0  0  0  0  0  0
   -5.2816    1.7678   -0.6965 H   0  0  0  0  0  0  0  0  0  0  0  0
   -5.8209    2.2522    0.9146 H   0  0  0  0  0  0  0  0  0  0  0  0
   -8.1865    2.1110    0.7997 H   0  0  0  0  0  0  0  0  0  0  0  0
  -10.2252    0.7610    0.3638 H   0  0  0  0  0  0  0  0  0  0  0  0
   -9.9859   -1.5195   -0.6323 H   0  0  0  0  0  0  0  0  0  0  0  0
   -7.6886   -2.3489   -1.1539 H   0  0  0  0  0  0  0  0  0  0  0  0
  1  2  1  0
  2  3  1  0
  3  4  2  0
  3  5  1  0
  5  6  1  0
  6  7  1  0
  5  8  2  0
  8  9  1  0
  9 10  2  0
  9 11  1  0
 11 12  2  0
 11 13  1  0
 13 14  1  0
 13 15  1  0
 15 16  1  0
 16 17  1  0
 17 18  1  0
 18 19  1  0
 19 20  1  0
 20 21  1  0
 19 22  1  0
 22 23  1  0
 23 24  1  0
 24 25  2  0
 25 26  1  0
 26 27  2  0
 27 28  1  0
 28 29  2  0
 10  4  1  0
 14 10  1  0
 21 16  1  0
 29 24  1  0
  1 30  1  0
  1 31  1  0
  1 32  1  0
  4 33  1  0
  7 34  1  0
  7 35  1  0
  7 36  1  0
  8 37  1  0
 13 38  1  0
 14 39  1  0
 14 40  1  0
 15 41  1  0
 15 42  1  0
 16 43  1  0
 17 44  1  0
 17 45  1  0
 18 46  1  0
 18 47  1  0
 20 48  1  0
 20 49  1  0
 21 50  1  0
 21 51  1  0
 22 52  1  0
 22 53  1  0
 23 54  1  0
 23 55  1  0
 25 56  1  0
 26 57  1  0
 27 58  1  0
 28 59  1  0
M  END
>  <mol_id>  (6) 
Z4493401842

>  <drugclip_rank>  (6) 
6

>  <conformer>  (6) 
23

>  <align_rmsd>  (6) 
0.635

$$$$
Z4493402112
     RDKit          3D

 56 59  0  0  0  0  0  0  0  0999 V2000
    8.0137   -0.4517    1.0982 C   0  0  0  0  0  0  0  0  0  0  0  0
    7.5511   -0.9637   -0.1431 O   0  0  0  0  0  0  0  0  0  0  0  0
    6.2211   -0.7990   -0.4487 C   0  0  0  0  0  0  0  0  0  0  0  0
    5.2916   -0.1732    0.3978 C   0  0  0  0  0  0  0  0  0  0  0  0
    5.8111   -1.3163   -1.7094 C   0  0  0  0  0  0  0  0  0  0  0  0
    6.7960   -1.9106   -2.4613 O   0  0  0  0  0  0  0  0  0  0  0  0
    6.4212   -2.4646   -3.7152 C   0  0  0  0  0  0  0  0  0  0  0  0
    4.4781   -1.2012   -2.1140 C   0  0  0  0  0  0  0  0  0  0  0  0
    3.5968   -0.5753   -1.2511 C   0  0  0  0  0  0  0  0  0  0  0  0
    3.9735   -0.0657   -0.0196 C   0  0  0  0  0  0  0  0  0  0  0  0
    2.1745   -0.3284   -1.4398 C   0  0  0  0  0  0  0  0  0  0  0  0
    1.5580   -0.6998   -2.4229 O   0  0  0  0  0  0  0  0  0  0  0  0
    1.6304    0.4637   -0.2599 C   0  0  0  0  0  0  0  0  0  0  0  0
    2.8253    0.5337    0.7269 C   0  0  0  0  0  0  0  0  0  0  0  0
    0.4081   -0.2078    0.3802 C   0  0  0  0  0  0  0  0  0  0  0  0
   -0.9137   -0.0025   -0.3915 C   0  0  0  0  0  0  0  0  0  0  0  0
   -1.9709   -0.9998    0.1207 C   0  0  0  0  0  0  0  0  0  0  0  0
   -3.3857   -0.4911   -0.1484 C   0  0  0  0  0  0  0  0  0  0  0  0
   -3.6770    0.7403    0.6096 N   0  0  0  0  0  0  0  0  0  0  0  0
   -2.5024    1.6070    0.7797 C   0  0  0  0  0  0  0  0  0  0  0  0
   -1.4423    1.4436   -0.3100 C   0  0  0  0  0  0  0  0  0  0  0  0
   -4.8080    1.4752    0.0005 C   0  0  0  0  0  0  0  0  0  0  0  0
   -6.1223    0.7110   -0.0032 C   0  0  0  0  0  0  0  0  0  0  0  0
   -6.7086    0.3198    1.2006 C   0  0  0  0  0  0  0  0  0  0  0  0
   -7.9106   -0.3806    1.1687 C   0  0  0  0  0  0  0  0  0  0  0  0
   -8.4949   -0.6719   -0.0578 C   0  0  0  0  0  0  0  0  0  0  0  0
   -7.8493   -0.2485   -1.2072 C   0  0  0  0  0  0  0  0  0  0  0  0
   -6.6833    0.4340   -1.2090 N   0  0  0  0  0  0  0  0  0  0  0  0
    9.0852   -0.6614    1.1683 H   0  0  0  0  0  0  0  0  0  0  0  0
    7.5219   -0.9516    1.9391 H   0  0  0  0  0  0  0  0  0  0  0  0
    7.8835    0.6343    1.1511 H   0  0  0  0  0  0  0  0  0  0  0  0
    5.5705    0.2240    1.3671 H   0  0  0  0  0  0  0  0  0  0  0  0
    5.6850   -3.2653   -3.5897 H   0  0  0  0  0  0  0  0  0  0  0  0
    7.3156   -2.9040   -4.1672 H   0  0  0  0  0  0  0  0  0  0  0  0
    6.0522   -1.6892   -4.3946 H   0  0  0  0  0  0  0  0  0  0  0  0
    4.1092   -1.5738   -3.0619 H   0  0  0  0  0  0  0  0  0  0  0  0
    1.4053    1.4758   -0.6132 H   0  0  0  0  0  0  0  0  0  0  0  0
    2.6381   -0.0366    1.6430 H   0  0  0  0  0  0  0  0  0  0  0  0
    3.0367    1.5740    0.9953 H   0  0  0  0  0  0  0  0  0  0  0  0
    0.2757    0.1736    1.4011 H   0  0  0  0  0  0  0  0  0  0  0  0
    0.6044   -1.2849    0.4693 H   0  0  0  0  0  0  0  0  0  0  0  0
   -0.7367   -0.2230   -1.4510 H   0  0  0  0  0  0  0  0  0  0  0  0
   -1.8494   -1.1794    1.1972 H   0  0  0  0  0  0  0  0  0  0  0  0
   -1.8240   -1.9687   -0.3717 H   0  0  0  0  0  0  0  0  0  0  0  0
   -3.4970   -0.3319   -1.2294 H   0  0  0  0  0  0  0  0  0  0  0  0
   -4.0998   -1.2704    0.1417 H   0  0  0  0  0  0  0  0  0  0  0  0
   -2.7885    2.6632    0.8584 H   0  0  0  0  0  0  0  0  0  0  0  0
   -2.0472    1.3618    1.7480 H   0  0  0  0  0  0  0  0  0  0  0  0
   -1.8850    1.7162   -1.2774 H   0  0  0  0  0  0  0  0  0  0  0  0
   -0.6325    2.1595   -0.1373 H   0  0  0  0  0  0  0  0  0  0  0  0
   -4.9940    2.3981    0.5656 H   0  0  0  0  0  0  0  0  0  0  0  0
   -4.5601    1.7818   -1.0243 H   0  0  0  0  0  0  0  0  0  0  0  0
   -6.2264    0.5492    2.1458 H   0  0  0  0  0  0  0  0  0  0  0  0
   -8.3831   -0.6988    2.0934 H   0  0  0  0  0  0  0  0  0  0  0  0
   -9.4295   -1.2176   -0.1172 H   0  0  0  0  0  0  0  0  0  0  0  0
   -8.2655   -0.4535   -2.1894 H   0  0  0  0  0  0  0  0  0  0  0  0
  1  2  1  0
  2  3  1  0
  3  4  2  0
  3  5  1  0
  5  6  1  0
  6  7  1  0
  5  8  2  0
  8  9  1  0
  9 10  2  0
  9 11  1  0
 11 12  2  0
 11 13  1  0
 13 14  1  0
 13 15  1  0
 15 16  1  0
 16 17  1  0
 17 18  1  0
 18 19  1  0
 19 20  1  0
 20 21  1  0
 19 22  1  0
 22 23  1  0
 23 24  2  0
 24 25  1  0
 25 26  2  0
 26 27  1  0
 27 28  2  0
 10  4  1  0
 14 10  1  0
 21 16  1  0
 28 23  1  0
  1 29  1  0
  1 30  1  0
  1 31  1  0
  4 32  1  0
  7 33  1  0
  7 34  1  0
  7 35  1  0
  8 36  1  0
 13 37  1  0
 14 38  1  0
 14 39  1  0
 15 40  1  0
 15 41  1  0
 16 42  1  0
 17 43  1  0
 17 44  1  0
 18 45  1  0
 18 46  1  0
 20 47  1  0
 20 48  1  0
 21 49  1  0
 21 50  1  0
 22 51  1  0
 22 52  1  0
 24 53  1  0
 25 54  1  0
 26 55  1  0
 27 56  1  0
M  END
>  <mol_id>  (7) 
Z4493402112

>  <drugclip_rank>  (7) 
7

>  <conformer>  (7) 
26

>  <align_rmsd>  (7) 
0.471

$$$$
STK601271
     RDKit          3D

 62 67  0  0  0  0  0  0  0  0999 V2000
    7.9323   -0.2777   -0.0093 C   0  0  0  0  0  0  0  0  0  0  0  0
    9.0775   -0.2540    1.0072 C   0  0  0  0  0  0  0  0  0  0  0  0
    8.9845    0.9729    1.9004 C   0  0  0  0  0  0  0  0  0  0  0  0
    7.6603    0.9872    2.6620 C   0  0  0  0  0  0  0  0  0  0  0  0
    6.4705    0.6088    1.8131 C   0  0  0  0  0  0  0  0  0  0  0  0
    5.1535    0.8951    2.4338 C   0  0  0  0  0  0  0  0  0  0  0  0
    4.0319    0.6013    1.6815 O   0  0  0  0  0  0  0  0  0  0  0  0
    5.0571    1.3606    3.5639 O   0  0  0  0  0  0  0  0  0  0  0  0
    6.5817    0.0589    0.5874 C   0  0  0  0  0  0  0  0  0  0  0  0
    5.3615   -0.2110   -0.1930 C   0  0  0  0  0  0  0  0  0  0  0  0
    5.3725   -0.7278   -1.4961 C   0  0  0  0  0  0  0  0  0  0  0  0
    4.1768   -0.9546   -2.1871 C   0  0  0  0  0  0  0  0  0  0  0  0
    2.9537   -0.6666   -1.5871 C   0  0  0  0  0  0  0  0  0  0  0  0
    2.9084   -0.1254   -0.3047 C   0  0  0  0  0  0  0  0  0  0  0  0
    4.1185    0.0789    0.3760 C   0  0  0  0  0  0  0  0  0  0  0  0
    1.8290   -0.9132   -2.3257 O   0  0  0  0  0  0  0  0  0  0  0  0
    0.6086   -0.8618   -1.5681 C   0  0  0  0  0  0  0  0  0  0  0  0
    0.5228    0.2989   -0.6864 N   0  0  0  0  0  0  0  0  0  0  0  0
    1.5802    0.1871    0.3241 C   0  0  0  0  0  0  0  0  0  0  0  0
   -0.8007    0.5195   -0.0698 C   0  0  0  0  0  0  0  0  0  0  0  0
   -1.7238    1.2781   -1.0458 C   0  0  0  0  0  0  0  0  0  0  0  0
   -3.2099    1.1560   -0.6803 C   0  0  0  0  0  0  0  0  0  0  0  0
   -1.5287   -0.7189    0.4707 C   0  0  0  0  0  0  0  0  0  0  0  0
   -2.8143   -0.3192    1.2146 C   0  0  0  0  0  0  0  0  0  0  0  0
   -3.3817    0.9475    0.7520 N   0  0  0  0  0  0  0  0  0  0  0  0
   -4.7299    1.2197    1.2637 C   0  0  0  0  0  0  0  0  0  0  0  0
   -5.8759    0.4845    0.5983 C   0  0  0  0  0  0  0  0  0  0  0  0
   -6.3169   -0.7583    1.0764 C   0  0  0  0  0  0  0  0  0  0  0  0
   -7.3782   -1.4231    0.4557 C   0  0  0  0  0  0  0  0  0  0  0  0
   -8.0119   -0.8535   -0.6477 C   0  0  0  0  0  0  0  0  0  0  0  0
   -7.5884    0.3831   -1.1304 C   0  0  0  0  0  0  0  0  0  0  0  0
   -6.5302    1.0495   -0.5094 C   0  0  0  0  0  0  0  0  0  0  0  0
    8.1517    0.4428   -0.8066 H   0  0  0  0  0  0  0  0  0  0  0  0
    7.9231   -1.2801   -0.4542 H   0  0  0  0  0  0  0  0  0  0  0  0
   10.0409   -0.2759    0.4864 H   0  0  0  0  0  0  0  0  0  0  0  0
    9.0351   -1.1588    1.6268 H   0  0  0  0  0  0  0  0  0  0  0  0
    9.0714    1.8786    1.2882 H   0  0  0  0  0  0  0  0  0  0  0  0
    9.8185    0.9874    2.6109 H   0  0  0  0  0  0  0  0  0  0  0  0
    7.7205    0.2883    3.5053 H   0  0  0  0  0  0  0  0  0  0  0  0
    7.5251    1.9911    3.0831 H   0  0  0  0  0  0  0  0  0  0  0  0
    6.3007   -0.9627   -2.0087 H   0  0  0  0  0  0  0  0  0  0  0  0
    4.2015   -1.3566   -3.1969 H   0  0  0  0  0  0  0  0  0  0  0  0
   -0.1925   -0.8338   -2.3142 H   0  0  0  0  0  0  0  0  0  0  0  0
    0.5056   -1.8124   -1.0266 H   0  0  0  0  0  0  0  0  0  0  0  0
    1.3553   -0.5993    1.0556 H   0  0  0  0  0  0  0  0  0  0  0  0
    1.6526    1.1433    0.8572 H   0  0  0  0  0  0  0  0  0  0  0  0
   -0.6502    1.2030    0.7791 H   0  0  0  0  0  0  0  0  0  0  0  0
   -1.6007    0.9196   -2.0736 H   0  0  0  0  0  0  0  0  0  0  0  0
   -1.4320    2.3361   -1.0528 H   0  0  0  0  0  0  0  0  0  0  0  0
   -3.7093    2.0755   -1.0076 H   0  0  0  0  0  0  0  0  0  0  0  0
   -3.6560    0.3301   -1.2491 H   0  0  0  0  0  0  0  0  0  0  0  0
   -0.8874   -1.2929    1.1497 H   0  0  0  0  0  0  0  0  0  0  0  0
   -1.7980   -1.3866   -0.3582 H   0  0  0  0  0  0  0  0  0  0  0  0
   -3.5209   -1.1486    1.1169 H   0  0  0  0  0  0  0  0  0  0  0  0
   -2.5831   -0.2211    2.2821 H   0  0  0  0  0  0  0  0  0  0  0  0
   -4.9175    2.2995    1.1830 H   0  0  0  0  0  0  0  0  0  0  0  0
   -4.7614    1.0292    2.3457 H   0  0  0  0  0  0  0  0  0  0  0  0
   -5.8397   -1.2158    1.9402 H   0  0  0  0  0  0  0  0  0  0  0  0
   -7.7131   -2.3850    0.8356 H   0  0  0  0  0  0  0  0  0  0  0  0
   -8.8393   -1.3705   -1.1289 H   0  0  0  0  0  0  0  0  0  0  0  0
   -8.0833    0.8312   -1.9884 H   0  0  0  0  0  0  0  0  0  0  0  0
   -6.2164    2.0186   -0.8933 H   0  0  0  0  0  0  0  0  0  0  0  0
  1  2  1  0
  2  3  1  0
  3  4  1  0
  4  5  1  0
  5  6  1  0
  6  7  1  0
  6  8  2  0
  5  9  2  0
  9 10  1  0
 10 11  2  0
 11 12  1  0
 12 13  2  0
 13 14  1  0
 14 15  2  0
 13 16  1  0
 16 17  1  0
 17 18  1  0
 18 19  1  0
 18 20  1  0
 20 21  1  0
 21 22  1  0
 20 23  1  0
 23 24  1  0
 24 25  1  0
 25 26  1  0
 26 27  1  0
 27 28  2  0
 28 29  1  0
 29 30  2  0
 30 31  1  0
 31 32  2  0
  9  1  1  0
 15  7  1  0
 15 10  1  0
 19 14  1  0
 25 22  1  0
 32 27  1  0
  1 33  1  0
  1 34  1  0
  2 35  1  0
  2 36  1  0
  3 37  1  0
  3 38  1  0
  4 39  1  0
  4 40  1  0
 11 41  1  0
 12 42  1  0
 17 43  1  0
 17 44  1  0
 19 45  1  0
 19 46  1  0
 20 47  1  0
 21 48  1  0
 21 49  1  0
 22 50  1  0
 22 51  1  0
 23 52  1  0
 23 53  1  0
 24 54  1  0
 24 55  1  0
 26 56  1  0
 26 57  1  0
 28 58  1  0
 29 59  1  0
 30 60  1  0
 31 61  1  0
 32 62  1  0
M  END
>  <mol_id>  (8) 
STK601271

>  <drugclip_rank>  (8) 
8

>  <conformer>  (8) 
33

>  <align_rmsd>  (8) 
0.324

$$$$
STK605378
     RDKit          3D

 62 67  0  0  0  0  0  0  0  0999 V2000
    6.8919    0.5719    2.0105 C   0  0  0  0  0  0  0  0  0  0  0  0
    8.3542    0.2313    2.3260 C   0  0  0  0  0  0  0  0  0  0  0  0
    9.0244   -0.1062    0.9899 C   0  0  0  0  0  0  0  0  0  0  0  0
    7.8570   -0.4341    0.1313 C   0  0  0  0  0  0  0  0  0  0  0  0
    7.9591   -1.0850   -1.1747 C   0  0  0  0  0  0  0  0  0  0  0  0
    6.7472   -1.3005   -1.8247 O   0  0  0  0  0  0  0  0  0  0  0  0
    9.0356   -1.4162   -1.6551 O   0  0  0  0  0  0  0  0  0  0  0  0
    6.6969   -0.0671    0.6793 C   0  0  0  0  0  0  0  0  0  0  0  0
    5.4456   -0.2923   -0.0166 C   0  0  0  0  0  0  0  0  0  0  0  0
    5.4955   -0.9084   -1.2741 C   0  0  0  0  0  0  0  0  0  0  0  0
    4.2043    0.0743    0.5030 C   0  0  0  0  0  0  0  0  0  0  0  0
    3.0294   -0.1791   -0.2227 C   0  0  0  0  0  0  0  0  0  0  0  0
    3.1038   -0.8177   -1.4690 C   0  0  0  0  0  0  0  0  0  0  0  0
    4.3421   -1.1654   -2.0297 C   0  0  0  0  0  0  0  0  0  0  0  0
    4.4260   -1.8528   -3.3630 C   0  0  0  0  0  0  0  0  0  0  0  0
    1.9772   -1.0985   -2.1979 O   0  0  0  0  0  0  0  0  0  0  0  0
    0.7416   -0.9683   -1.4787 C   0  0  0  0  0  0  0  0  0  0  0  0
    0.6620    0.2536   -0.6868 N   0  0  0  0  0  0  0  0  0  0  0  0
    1.6886    0.1920    0.3528 C   0  0  0  0  0  0  0  0  0  0  0  0
   -0.6704    0.5794   -0.1424 C   0  0  0  0  0  0  0  0  0  0  0  0
   -1.2876   -0.4617    0.8189 C   0  0  0  0  0  0  0  0  0  0  0  0
   -2.8199   -0.3761    0.8913 C   0  0  0  0  0  0  0  0  0  0  0  0
   -1.6801    0.9366   -1.2418 C   0  0  0  0  0  0  0  0  0  0  0  0
   -2.9689    1.5141   -0.6338 C   0  0  0  0  0  0  0  0  0  0  0  0
   -3.2607    0.9984    0.7074 N   0  0  0  0  0  0  0  0  0  0  0  0
   -4.6258    1.2774    1.1703 C   0  0  0  0  0  0  0  0  0  0  0  0
   -5.7498    0.5349    0.4773 C   0  0  0  0  0  0  0  0  0  0  0  0
   -6.1412   -0.7412    0.9102 C   0  0  0  0  0  0  0  0  0  0  0  0
   -7.1798   -1.4226    0.2727 C   0  0  0  0  0  0  0  0  0  0  0  0
   -7.8432   -0.8353   -0.8023 C   0  0  0  0  0  0  0  0  0  0  0  0
   -7.4715    0.4344   -1.2385 C   0  0  0  0  0  0  0  0  0  0  0  0
   -6.4333    1.1165   -0.6013 C   0  0  0  0  0  0  0  0  0  0  0  0
    6.7443    1.6552    1.9455 H   0  0  0  0  0  0  0  0  0  0  0  0
    6.2296    0.1652    2.7808 H   0  0  0  0  0  0  0  0  0  0  0  0
    8.3930   -0.6438    2.9881 H   0  0  0  0  0  0  0  0  0  0  0  0
    8.8630    1.0499    2.8454 H   0  0  0  0  0  0  0  0  0  0  0  0
    9.7179   -0.9451    1.1006 H   0  0  0  0  0  0  0  0  0  0  0  0
    9.5668    0.7570    0.5898 H   0  0  0  0  0  0  0  0  0  0  0  0
    4.1346    0.5601    1.4730 H   0  0  0  0  0  0  0  0  0  0  0  0
    4.3744   -2.9374   -3.2267 H   0  0  0  0  0  0  0  0  0  0  0  0
    3.6139   -1.5405   -4.0276 H   0  0  0  0  0  0  0  0  0  0  0  0
    5.3572   -1.6055   -3.8831 H   0  0  0  0  0  0  0  0  0  0  0  0
    0.6025   -1.8770   -0.8793 H   0  0  0  0  0  0  0  0  0  0  0  0
   -0.0327   -0.9773   -2.2512 H   0  0  0  0  0  0  0  0  0  0  0  0
    1.7723    1.1750    0.8323 H   0  0  0  0  0  0  0  0  0  0  0  0
    1.4400   -0.5457    1.1261 H   0  0  0  0  0  0  0  0  0  0  0  0
   -0.5366    1.5058    0.4368 H   0  0  0  0  0  0  0  0  0  0  0  0
   -1.0287   -1.4862    0.5322 H   0  0  0  0  0  0  0  0  0  0  0  0
   -0.8663   -0.3052    1.8204 H   0  0  0  0  0  0  0  0  0  0  0  0
   -3.2623   -1.0351    0.1332 H   0  0  0  0  0  0  0  0  0  0  0  0
   -3.1272   -0.7634    1.8704 H   0  0  0  0  0  0  0  0  0  0  0  0
   -1.9378    0.0434   -1.8246 H   0  0  0  0  0  0  0  0  0  0  0  0
   -1.2544    1.6662   -1.9414 H   0  0  0  0  0  0  0  0  0  0  0  0
   -3.7774    1.3103   -1.3435 H   0  0  0  0  0  0  0  0  0  0  0  0
   -2.8707    2.6044   -0.5668 H   0  0  0  0  0  0  0  0  0  0  0  0
   -4.8140    2.3574    1.0996 H   0  0  0  0  0  0  0  0  0  0  0  0
   -4.6843    1.0691    2.2474 H   0  0  0  0  0  0  0  0  0  0  0  0
   -5.6392   -1.2116    1.7524 H   0  0  0  0  0  0  0  0  0  0  0  0
   -7.4725   -2.4110    0.6169 H   0  0  0  0  0  0  0  0  0  0  0  0
   -8.6520   -1.3655   -1.2980 H   0  0  0  0  0  0  0  0  0  0  0  0
   -7.9910    0.8953   -2.0746 H   0  0  0  0  0  0  0  0  0  0  0  0
   -6.1585    2.1088   -0.9522 H   0  0  0  0  0  0  0  0  0  0  0  0
  1  2  1  0
  2  3  1  0
  3  4  1  0
  4  5  1  0
  5  6  1  0
  5  7  2  0
  4  8  2  0
  8  9  1  0
  9 10  2  0
  9 11  1  0
 11 12  2  0
 12 13  1  0
 13 14  2  0
 14 15  1  0
 13 16  1  0
 16 17  1  0
 17 18  1  0
 18 19  1  0
 18 20  1  0
 20 21  1  0
 21 22  1  0
 20 23  1  0
 23 24  1  0
 24 25  1  0
 25 26  1  0
 26 27  1  0
 27 28  2  0
 28 29  1  0
 29 30  2  0
 30 31  1  0
 31 32  2  0
  8  1  1  0
 10  6  1  0
 14 10  1  0
 19 12  1  0
 25 22  1  0
 32 27  1  0
  1 33  1  0
  1 34  1  0
  2 35  1  0
  2 36  1  0
  3 37  1  0
  3 38  1  0
 11 39  1  0
 15 40  1  0
 15 41  1  0
 15 42  1  0
 17 43  1  0
 17 44  1  0
 19 45  1  0
 19 46  1  0
 20 47  1  0
 21 48  1  0
 21 49  1  0
 22 50  1  0
 22 51  1  0
 23 52  1  0
 23 53  1  0
 24 54  1  0
 24 55  1  0
 26 56  1  0
 26 57  1  0
 28 58  1  0
 29 59  1  0
 30 60  1  0
 31 61  1  0
 32 62  1  0
M  END
>  <mol_id>  (9) 
STK605378

>  <drugclip_rank>  (9) 
9

>  <conformer>  (9) 
26

>  <align_rmsd>  (9) 
0.56

$$$$
Z4493402195
     RDKit          3D

 59 62  0  0  0  0  0  0  0  0999 V2000
    7.4811   -0.8118    1.4530 C   0  0  0  0  0  0  0  0  0  0  0  0
    7.2500   -1.0916    0.0802 O   0  0  0  0  0  0  0  0  0  0  0  0
    5.9551   -1.0312   -0.3769 C   0  0  0  0  0  0  0  0  0  0  0  0
    4.8550   -0.6807    0.4227 C   0  0  0  0  0  0  0  0  0  0  0  0
    5.7735   -1.3462   -1.7529 C   0  0  0  0  0  0  0  0  0  0  0  0
    6.9137   -1.6730   -2.4472 O   0  0  0  0  0  0  0  0  0  0  0  0
    6.7762   -1.9846   -3.8268 C   0  0  0  0  0  0  0  0  0  0  0  0
    4.4953   -1.3120   -2.3172 C   0  0  0  0  0  0  0  0  0  0  0  0
    3.4398   -0.9678   -1.4931 C   0  0  0  0  0  0  0  0  0  0  0  0
    3.5930   -0.6564   -0.1510 C   0  0  0  0  0  0  0  0  0  0  0  0
    2.0263   -0.8718   -1.8297 C   0  0  0  0  0  0  0  0  0  0  0  0
    1.5878   -1.0285   -2.9555 O   0  0  0  0  0  0  0  0  0  0  0  0
    1.2258   -0.5931   -0.5686 C   0  0  0  0  0  0  0  0  0  0  0  0
    2.3000   -0.2733    0.4978 C   0  0  0  0  0  0  0  0  0  0  0  0
    0.2157    0.5375   -0.7916 C   0  0  0  0  0  0  0  0  0  0  0  0
   -0.6559    0.8682    0.4369 C   0  0  0  0  0  0  0  0  0  0  0  0
   -1.3997    2.1955    0.2027 C   0  0  0  0  0  0  0  0  0  0  0  0
   -2.5775    2.3445    1.1635 C   0  0  0  0  0  0  0  0  0  0  0  0
   -3.5848    1.2815    1.0391 N   0  0  0  0  0  0  0  0  0  0  0  0
   -3.0759    0.0697    0.3738 C   0  0  0  0  0  0  0  0  0  0  0  0
   -1.6434   -0.2574    0.7998 C   0  0  0  0  0  0  0  0  0  0  0  0
   -4.8063    1.7773    0.3652 C   0  0  0  0  0  0  0  0  0  0  0  0
   -5.9734    0.7988    0.3566 C   0  0  0  0  0  0  0  0  0  0  0  0
   -6.3137    0.3027   -0.8659 N   0  0  0  0  0  0  0  0  0  0  0  0
   -7.3301   -0.5820   -0.9262 C   0  0  0  0  0  0  0  0  0  0  0  0
   -8.0398   -1.0117    0.1778 C   0  0  0  0  0  0  0  0  0  0  0  0
   -7.6872   -0.5022    1.4216 C   0  0  0  0  0  0  0  0  0  0  0  0
   -6.6437    0.4254    1.5317 C   0  0  0  0  0  0  0  0  0  0  0  0
   -6.2506    0.9432    2.8838 C   0  0  0  0  0  0  0  0  0  0  0  0
    8.5534   -0.9222    1.6412 H   0  0  0  0  0  0  0  0  0  0  0  0
    6.9559   -1.5255    2.0962 H   0  0  0  0  0  0  0  0  0  0  0  0
    7.2057    0.2194    1.6972 H   0  0  0  0  0  0  0  0  0  0  0  0
    4.9617   -0.4237    1.4702 H   0  0  0  0  0  0  0  0  0  0  0  0
    6.1508   -2.8718   -3.9708 H   0  0  0  0  0  0  0  0  0  0  0  0
    7.7720   -2.2134   -4.2186 H   0  0  0  0  0  0  0  0  0  0  0  0
    6.3868   -1.1291   -4.3883 H   0  0  0  0  0  0  0  0  0  0  0  0
    4.2963   -1.5430   -3.3565 H   0  0  0  0  0  0  0  0  0  0  0  0
    0.7217   -1.5307   -0.3069 H   0  0  0  0  0  0  0  0  0  0  0  0
    2.3227    0.7918    0.7525 H   0  0  0  0  0  0  0  0  0  0  0  0
    2.1249   -0.8557    1.4083 H   0  0  0  0  0  0  0  0  0  0  0  0
   -0.4363    0.2803   -1.6371 H   0  0  0  0  0  0  0  0  0  0  0  0
    0.7614    1.4396   -1.1010 H   0  0  0  0  0  0  0  0  0  0  0  0
    0.0066    1.0105    1.3004 H   0  0  0  0  0  0  0  0  0  0  0  0
   -0.7029    3.0313    0.3404 H   0  0  0  0  0  0  0  0  0  0  0  0
   -1.7625    2.2616   -0.8315 H   0  0  0  0  0  0  0  0  0  0  0  0
   -3.0187    3.3422    1.0467 H   0  0  0  0  0  0  0  0  0  0  0  0
   -2.1941    2.3151    2.1916 H   0  0  0  0  0  0  0  0  0  0  0  0
   -3.1025    0.1722   -0.7194 H   0  0  0  0  0  0  0  0  0  0  0  0
   -3.7131   -0.7831    0.6354 H   0  0  0  0  0  0  0  0  0  0  0  0
   -1.6248   -0.4080    1.8877 H   0  0  0  0  0  0  0  0  0  0  0  0
   -1.3483   -1.2149    0.3595 H   0  0  0  0  0  0  0  0  0  0  0  0
   -5.1618    2.6915    0.8578 H   0  0  0  0  0  0  0  0  0  0  0  0
   -4.5724    2.0650   -0.6691 H   0  0  0  0  0  0  0  0  0  0  0  0
   -7.5644   -0.9502   -1.9207 H   0  0  0  0  0  0  0  0  0  0  0  0
   -8.8456   -1.7289    0.0741 H   0  0  0  0  0  0  0  0  0  0  0  0
   -8.2269   -0.8339    2.3052 H   0  0  0  0  0  0  0  0  0  0  0  0
   -6.1376    2.0314    2.8710 H   0  0  0  0  0  0  0  0  0  0  0  0
   -5.3145    0.4806    3.2108 H   0  0  0  0  0  0  0  0  0  0  0  0
   -7.0165    0.7147    3.6331 H   0  0  0  0  0  0  0  0  0  0  0  0
  1  2  1  0
  2  3  1  0
  3  4  2  0
  3  5  1  0
  5  6  1  0
  6  7  1  0
  5  8  2  0
  8  9  1  0
  9 10  2  0
  9 11  1  0
 11 12  2  0
 11 13  1  0
 13 14  1  0
 13 15  1  0
 15 16  1  0
 16 17  1  0
 17 18  1  0
 18 19  1  0
 19 20  1  0
 20 21  1  0
 19 22  1  0
 22 23  1  0
 23 24  2  0
 24 25  1  0
 25 26  2  0
 26 27  1  0
 27 28  2  0
 28 29  1  0
 10  4  1  0
 14 10  1  0
 21 16  1  0
 28 23  1  0
  1 30  1  0
  1 31  1  0
  1 32  1  0
  4 33  1  0
  7 34  1  0
  7 35  1  0
  7 36  1  0
  8 37  1  0
 13 38  1  0
 14 39  1  0
 14 40  1  0
 15 41  1  0
 15 42  1  0
 16 43  1  0
 17 44  1  0
 17 45  1  0
 18 46  1  0
 18 47  1  0
 20 48  1  0
 20 49  1  0
 21 50  1  0
 21 51  1  0
 22 52  1  0
 22 53  1  0
 25 54  1  0
 26 55  1  0
 27 56  1  0
 29 57  1  0
 29 58  1  0
 29 59  1  0
M  END
>  <mol_id>  (10) 
Z4493402195

>  <drugclip_rank>  (10) 
10

>  <conformer>  (10) 
23

>  <align_rmsd>  (10) 
0.603

$$$$
OSSM_114841
     RDKit          3D

 62 67  0  0  0  0  0  0  0  0999 V2000
    7.9323   -0.2777   -0.0093 C   0  0  0  0  0  0  0  0  0  0  0  0
    9.0775   -0.2540    1.0072 C   0  0  0  0  0  0  0  0  0  0  0  0
    8.9845    0.9729    1.9004 C   0  0  0  0  0  0  0  0  0  0  0  0
    7.6603    0.9872    2.6620 C   0  0  0  0  0  0  0  0  0  0  0  0
    6.4705    0.6088    1.8131 C   0  0  0  0  0  0  0  0  0  0  0  0
    5.1535    0.8951    2.4338 C   0  0  0  0  0  0  0  0  0  0  0  0
    4.0319    0.6013    1.6815 O   0  0  0  0  0  0  0  0  0  0  0  0
    5.0571    1.3606    3.5639 O   0  0  0  0  0  0  0  0  0  0  0  0
    6.5817    0.0589    0.5874 C   0  0  0  0  0  0  0  0  0  0  0  0
    5.3615   -0.2110   -0.1930 C   0  0  0  0  0  0  0  0  0  0  0  0
    5.3725   -0.7278   -1.4961 C   0  0  0  0  0  0  0  0  0  0  0  0
    4.1768   -0.9546   -2.1871 C   0  0  0  0  0  0  0  0  0  0  0  0
    2.9537   -0.6666   -1.5871 C   0  0  0  0  0  0  0  0  0  0  0  0
    2.9084   -0.1254   -0.3047 C   0  0  0  0  0  0  0  0  0  0  0  0
    4.1185    0.0789    0.3760 C   0  0  0  0  0  0  0  0  0  0  0  0
    1.8290   -0.9132   -2.3257 O   0  0  0  0  0  0  0  0  0  0  0  0
    0.6086   -0.8618   -1.5681 C   0  0  0  0  0  0  0  0  0  0  0  0
    0.5228    0.2989   -0.6864 N   0  0  0  0  0  0  0  0  0  0  0  0
    1.5802    0.1871    0.3241 C   0  0  0  0  0  0  0  0  0  0  0  0
   -0.8007    0.5195   -0.0698 C   0  0  0  0  0  0  0  0  0  0  0  0
   -1.7238    1.2781   -1.0458 C   0  0  0  0  0  0  0  0  0  0  0  0
   -3.2099    1.1560   -0.6803 C   0  0  0  0  0  0  0  0  0  0  0  0
   -1.5287   -0.7189    0.4707 C   0  0  0  0  0  0  0  0  0  0  0  0
   -2.8143   -0.3192    1.2146 C   0  0  0  0  0  0  0  0  0  0  0  0
   -3.3817    0.9475    0.7520 N   0  0  0  0  0  0  0  0  0  0  0  0
   -4.7299    1.2197    1.2637 C   0  0  0  0  0  0  0  0  0  0  0  0
   -5.8759    0.4845    0.5983 C   0  0  0  0  0  0  0  0  0  0  0  0
   -6.3169   -0.7583    1.0764 C   0  0  0  0  0  0  0  0  0  0  0  0
   -7.3782   -1.4231    0.4557 C   0  0  0  0  0  0  0  0  0  0  0  0
   -8.0119   -0.8535   -0.6477 C   0  0  0  0  0  0  0  0  0  0  0  0
   -7.5884    0.3831   -1.1304 C   0  0  0  0  0  0  0  0  0  0  0  0
   -6.5302    1.0495   -0.5094 C   0  0  0  0  0  0  0  0  0  0  0  0
    8.1517    0.4428   -0.8066 H   0  0  0  0  0  0  0  0  0  0  0  0
    7.9231   -1.2801   -0.4542 H   0  0  0  0  0  0  0  0  0  0  0  0
   10.0409   -0.2759    0.4864 H   0  0  0  0  0  0  0  0  0  0  0  0
    9.0351   -1.1588    1.6268 H   0  0  0  0  0  0  0  0  0  0  0  0
    9.0714    1.8786    1.2882 H   0  0  0  0  0  0  0  0  0  0  0  0
    9.8185    0.9874    2.6109 H   0  0  0  0  0  0  0  0  0  0  0  0
    7.7205    0.2883    3.5053 H   0  0  0  0  0  0  0  0  0  0  0  0
    7.5251    1.9911    3.0831 H   0  0  0  0  0  0  0  0  0  0  0  0
    6.3007   -0.9627   -2.0087 H   0  0  0  0  0  0  0  0  0  0  0  0
    4.2015   -1.3566   -3.1969 H   0  0  0  0  0  0  0  0  0  0  0  0
   -0.1925   -0.8338   -2.3142 H   0  0  0  0  0  0  0  0  0  0  0  0
    0.5056   -1.8124   -1.0266 H   0  0  0  0  0  0  0  0  0  0  0  0
    1.3553   -0.5993    1.0556 H   0  0  0  0  0  0  0  0  0  0  0  0
    1.6526    1.1433    0.8572 H   0  0  0  0  0  0  0  0  0  0  0  0
   -0.6502    1.2030    0.7791 H   0  0  0  0  0  0  0  0  0  0  0  0
   -1.6007    0.9196   -2.0736 H   0  0  0  0  0  0  0  0  0  0  0  0
   -1.4320    2.3361   -1.0528 H   0  0  0  0  0  0  0  0  0  0  0  0
   -3.7093    2.0755   -1.0076 H   0  0  0  0  0  0  0  0  0  0  0  0
   -3.6560    0.3301   -1.2491 H   0  0  0  0  0  0  0  0  0  0  0  0
   -0.8874   -1.2929    1.1497 H   0  0  0  0  0  0  0  0  0  0  0  0
   -1.7980   -1.3866   -0.3582 H   0  0  0  0  0  0  0  0  0  0  0  0
   -3.5209   -1.1486    1.1169 H   0  0  0  0  0  0  0  0  0  0  0  0
   -2.5831   -0.2211    2.2821 H   0  0  0  0  0  0  0  0  0  0  0  0
   -4.9175    2.2995    1.1830 H   0  0  0  0  0  0  0  0  0  0  0  0
   -4.7614    1.0292    2.3457 H   0  0  0  0  0  0  0  0  0  0  0  0
   -5.8397   -1.2158    1.9402 H   0  0  0  0  0  0  0  0  0  0  0  0
   -7.7131   -2.3850    0.8356 H   0  0  0  0  0  0  0  0  0  0  0  0
   -8.8393   -1.3705   -1.1289 H   0  0  0  0  0  0  0  0  0  0  0  0
   -8.0833    0.8312   -1.9884 H   0  0  0  0  0  0  0  0  0  0  0  0
   -6.2164    2.0186   -0.8933 H   0  0  0  0  0  0  0  0  0  0  0  0
  1  2  1  0
  2  3  1  0
  3  4  1  0
  4  5  1  0
  5  6  1  0
  6  7  1  0
  6  8  2  0
  5  9  2  0
  9 10  1  0
 10 11  2  0
 11 12  1  0
 12 13  2  0
 13 14  1  0
 14 15  2  0
 13 16  1  0
 16 17  1  0
 17 18  1  0
 18 19  1  0
 18 20  1  0
 20 21  1  0
 21 22  1  0
 20 23  1  0
 23 24  1  0
 24 25  1  0
 25 26  1  0
 26 27  1  0
 27 28  2  0
 28 29  1  0
 29 30  2  0
 30 31  1  0
 31 32  2  0
  9  1  1  0
 15  7  1  0
 15 10  1  0
 19 14  1  0
 25 22  1  0
 32 27  1  0
  1 33  1  0
  1 34  1  0
  2 35  1  0
  2 36  1  0
  3 37  1  0
  3 38  1  0
  4 39  1  0
  4 40  1  0
 11 41  1  0
 12 42  1  0
 17 43  1  0
 17 44  1  0
 19 45  1  0
 19 46  1  0
 20 47  1  0
 21 48  1  0
 21 49  1  0
 22 50  1  0
 22 51  1  0
 23 52  1  0
 23 53  1  0
 24 54  1  0
 24 55  1  0
 26 56  1  0
 26 57  1  0
 28 58  1  0
 29 59  1  0
 30 60  1  0
 31 61  1  0
 32 62  1  0
M  END
>  <mol_id>  (11) 
OSSM_114841

>  <drugclip_rank>  (11) 
11

>  <conformer>  (11) 
33

>  <align_rmsd>  (11) 
0.324

$$$$
STK616659
     RDKit          3D

 53 56  0  0  0  0  0  0  0  0999 V2000
   -1.6920   -1.9228    0.3022 C   0  0  0  0  0  0  0  0  0  0  0  0
   -2.1825   -2.6979    1.3541 C   0  0  0  0  0  0  0  0  0  0  0  0
   -2.5283   -2.0974    2.5622 C   0  0  0  0  0  0  0  0  0  0  0  0
   -2.3771   -0.7225    2.7224 C   0  0  0  0  0  0  0  0  0  0  0  0
   -1.8841    0.0524    1.6715 C   0  0  0  0  0  0  0  0  0  0  0  0
   -1.5316   -0.5374    0.4483 C   0  0  0  0  0  0  0  0  0  0  0  0
   -1.0114    0.3083   -0.6990 C   0  0  0  0  0  0  0  0  0  0  0  0
    0.4726    0.1360   -0.9635 C   0  0  0  0  0  0  0  0  0  0  0  0
    0.7781   -0.8731   -2.0176 C   0  0  0  0  0  0  0  0  0  0  0  0
    2.1083   -1.1014   -2.3140 O   0  0  0  0  0  0  0  0  0  0  0  0
   -0.1026   -1.4792   -2.6186 O   0  0  0  0  0  0  0  0  0  0  0  0
    1.4584    0.8460   -0.3685 C   0  0  0  0  0  0  0  0  0  0  0  0
    1.2130    1.9134    0.6688 C   0  0  0  0  0  0  0  0  0  0  0  0
    2.8672    0.5817   -0.7366 C   0  0  0  0  0  0  0  0  0  0  0  0
    3.1527   -0.3770   -1.7103 C   0  0  0  0  0  0  0  0  0  0  0  0
    3.9552    1.2468   -0.1515 C   0  0  0  0  0  0  0  0  0  0  0  0
    5.2776    0.9611   -0.5305 C   0  0  0  0  0  0  0  0  0  0  0  0
    5.5177    0.0185   -1.5317 C   0  0  0  0  0  0  0  0  0  0  0  0
    4.4606   -0.6708   -2.1365 C   0  0  0  0  0  0  0  0  0  0  0  0
    4.7199   -1.7348   -3.1647 C   0  0  0  0  0  0  0  0  0  0  0  0
    6.7964   -0.3125   -1.9016 O   0  0  0  0  0  0  0  0  0  0  0  0
    7.7772    0.6750   -1.5648 C   0  0  0  0  0  0  0  0  0  0  0  0
    7.7313    1.1302   -0.1857 N   0  0  0  0  0  0  0  0  0  0  0  0
    6.4230    1.7015    0.1064 C   0  0  0  0  0  0  0  0  0  0  0  0
    8.2462    0.1833    0.8151 C   0  0  0  0  0  0  0  0  0  0  0  0
    7.5294   -1.1731    1.0438 C   0  0  0  0  0  0  0  0  0  0  0  0
    7.7913   -2.0752   -0.0329 O   0  0  0  0  0  0  0  0  0  0  0  0
    8.0534   -1.8424    2.3124 C   0  0  0  0  0  0  0  0  0  0  0  0
   -1.4546   -2.4094   -0.6438 H   0  0  0  0  0  0  0  0  0  0  0  0
   -2.3085   -3.7669    1.2222 H   0  0  0  0  0  0  0  0  0  0  0  0
   -2.9255   -2.7017    3.3741 H   0  0  0  0  0  0  0  0  0  0  0  0
   -2.6621   -0.2471    3.6579 H   0  0  0  0  0  0  0  0  0  0  0  0
   -1.7976    1.1273    1.8105 H   0  0  0  0  0  0  0  0  0  0  0  0
   -1.6067    0.0833   -1.5931 H   0  0  0  0  0  0  0  0  0  0  0  0
   -1.2428    1.3649   -0.5160 H   0  0  0  0  0  0  0  0  0  0  0  0
    1.6165    2.8760    0.3293 H   0  0  0  0  0  0  0  0  0  0  0  0
    1.6841    1.6445    1.6200 H   0  0  0  0  0  0  0  0  0  0  0  0
    0.1577    2.0899    0.8829 H   0  0  0  0  0  0  0  0  0  0  0  0
    3.8000    1.9953    0.6235 H   0  0  0  0  0  0  0  0  0  0  0  0
    3.8938   -1.8126   -3.8817 H   0  0  0  0  0  0  0  0  0  0  0  0
    4.8527   -2.7025   -2.6709 H   0  0  0  0  0  0  0  0  0  0  0  0
    5.6155   -1.5125   -3.7518 H   0  0  0  0  0  0  0  0  0  0  0  0
    7.6608    1.5272   -2.2512 H   0  0  0  0  0  0  0  0  0  0  0  0
    8.7628    0.2504   -1.7945 H   0  0  0  0  0  0  0  0  0  0  0  0
    6.2666    1.8012    1.1880 H   0  0  0  0  0  0  0  0  0  0  0  0
    6.4095    2.7211   -0.2998 H   0  0  0  0  0  0  0  0  0  0  0  0
    8.2842    0.7221    1.7729 H   0  0  0  0  0  0  0  0  0  0  0  0
    9.2963   -0.0183    0.5551 H   0  0  0  0  0  0  0  0  0  0  0  0
    6.4449   -1.0473    1.1457 H   0  0  0  0  0  0  0  0  0  0  0  0
    7.3106   -1.7256   -0.8102 H   0  0  0  0  0  0  0  0  0  0  0  0
    9.1366   -1.9974    2.2530 H   0  0  0  0  0  0  0  0  0  0  0  0
    7.5998   -2.8304    2.4399 H   0  0  0  0  0  0  0  0  0  0  0  0
    7.8362   -1.2400    3.2002 H   0  0  0  0  0  0  0  0  0  0  0  0
  1  2  2  0
  2  3  1  0
  3  4  2  0
  4  5  1  0
  5  6  2  0
  6  7  1  0
  7  8  1  0
  8  9  1  0
  9 10  1  0
  9 11  2  0
  8 12  2  0
 12 13  1  0
 12 14  1  0
 14 15  2  0
 14 16  1  0
 16 17  2  0
 17 18  1  0
 18 19  2  0
 19 20  1  0
 18 21  1  0
 21 22  1  0
 22 23  1  0
 23 24  1  0
 23 25  1  0
 25 26  1  0
 26 27  1  0
 26 28  1  0
  6  1  1  0
 15 10  1  0
 19 15  1  0
 24 17  1  0
  1 29  1  0
  2 30  1  0
  3 31  1  0
  4 32  1  0
  5 33  1  0
  7 34  1  0
  7 35  1  0
 13 36  1  0
 13 37  1  0
 13 38  1  0
 16 39  1  0
 20 40  1  0
 20 41  1  0
 20 42  1  0
 22 43  1  0
 22 44  1  0
 24 45  1  0
 24 46  1  0
 25 47  1  0
 25 48  1  0
 26 49  1  0
 27 50  1  0
 28 51  1  0
 28 52  1  0
 28 53  1  0
M  END
>  <mol_id>  (12) 
STK616659

>  <drugclip_rank>  (12) 
12

>  <conformer>  (12) 
16

>  <align_rmsd>  (12) 
1.075

$$$$
OSSM_025582
     RDKit          3D

 64 68  0  0  0  0  0  0  0  0999 V2000
    6.7643   -1.3128   -1.8070 O   0  0  0  0  0  0  0  0  0  0  0  0
    7.9570   -1.1267   -1.1366 C   0  0  0  0  0  0  0  0  0  0  0  0
    9.0356   -1.4855   -1.5943 O   0  0  0  0  0  0  0  0  0  0  0  0
    7.8786   -0.4659    0.1723 C   0  0  0  0  0  0  0  0  0  0  0  0
    6.7306   -0.0515    0.7299 C   0  0  0  0  0  0  0  0  0  0  0  0
    6.7396    0.6185    2.0841 C   0  0  0  0  0  0  0  0  0  0  0  0
    6.6418    2.1442    1.9809 C   0  0  0  0  0  0  0  0  0  0  0  0
    6.6402    2.7933    3.3564 C   0  0  0  0  0  0  0  0  0  0  0  0
    5.4738   -0.2943   -0.0001 C   0  0  0  0  0  0  0  0  0  0  0  0
    5.5251   -0.9089   -1.2575 C   0  0  0  0  0  0  0  0  0  0  0  0
    4.2126    0.0566    0.4964 C   0  0  0  0  0  0  0  0  0  0  0  0
    3.0422   -0.1992   -0.2397 C   0  0  0  0  0  0  0  0  0  0  0  0
    3.1314   -0.8304   -1.4818 C   0  0  0  0  0  0  0  0  0  0  0  0
    4.3768   -1.1677   -2.0267 C   0  0  0  0  0  0  0  0  0  0  0  0
    4.4810   -1.8512   -3.3619 C   0  0  0  0  0  0  0  0  0  0  0  0
    2.0137   -1.1135   -2.2174 O   0  0  0  0  0  0  0  0  0  0  0  0
    0.7803   -1.0269   -1.4920 C   0  0  0  0  0  0  0  0  0  0  0  0
    0.6450    0.2014   -0.6989 N   0  0  0  0  0  0  0  0  0  0  0  0
    1.6957    0.1721    0.3250 C   0  0  0  0  0  0  0  0  0  0  0  0
   -0.7172    0.3303   -0.1158 C   0  0  0  0  0  0  0  0  0  0  0  0
   -1.7835    0.4660   -1.2325 C   0  0  0  0  0  0  0  0  0  0  0  0
   -3.0457    1.2214   -0.8014 C   0  0  0  0  0  0  0  0  0  0  0  0
   -0.8750    1.5222    0.8450 C   0  0  0  0  0  0  0  0  0  0  0  0
   -2.2840    1.5684    1.4581 C   0  0  0  0  0  0  0  0  0  0  0  0
   -3.3218    0.9645    0.6109 N   0  0  0  0  0  0  0  0  0  0  0  0
   -4.6569    1.4341    1.0198 C   0  0  0  0  0  0  0  0  0  0  0  0
   -5.7903    0.6218    0.4282 C   0  0  0  0  0  0  0  0  0  0  0  0
   -6.8372    1.2535   -0.2586 C   0  0  0  0  0  0  0  0  0  0  0  0
   -7.8907    0.5053   -0.7882 C   0  0  0  0  0  0  0  0  0  0  0  0
   -7.9118   -0.8795   -0.6332 C   0  0  0  0  0  0  0  0  0  0  0  0
   -6.8815   -1.5187    0.0534 C   0  0  0  0  0  0  0  0  0  0  0  0
   -5.8285   -0.7723    0.5845 C   0  0  0  0  0  0  0  0  0  0  0  0
    8.8367   -0.3266    0.6608 H   0  0  0  0  0  0  0  0  0  0  0  0
    7.6687    0.3658    2.6138 H   0  0  0  0  0  0  0  0  0  0  0  0
    5.9387    0.2178    2.7169 H   0  0  0  0  0  0  0  0  0  0  0  0
    5.7311    2.4407    1.4484 H   0  0  0  0  0  0  0  0  0  0  0  0
    7.4896    2.5332    1.4037 H   0  0  0  0  0  0  0  0  0  0  0  0
    7.5491    2.5410    3.9112 H   0  0  0  0  0  0  0  0  0  0  0  0
    5.7764    2.4646    3.9426 H   0  0  0  0  0  0  0  0  0  0  0  0
    6.5916    3.8824    3.2615 H   0  0  0  0  0  0  0  0  0  0  0  0
    4.1106    0.5387    1.4650 H   0  0  0  0  0  0  0  0  0  0  0  0
    5.3902   -1.5498   -3.8925 H   0  0  0  0  0  0  0  0  0  0  0  0
    3.6452   -1.5884   -4.0181 H   0  0  0  0  0  0  0  0  0  0  0  0
    4.4926   -2.9368   -3.2244 H   0  0  0  0  0  0  0  0  0  0  0  0
    0.6657   -1.9319   -0.8789 H   0  0  0  0  0  0  0  0  0  0  0  0
    0.0093   -1.0724   -2.2664 H   0  0  0  0  0  0  0  0  0  0  0  0
    1.7933    1.1699    0.7677 H   0  0  0  0  0  0  0  0  0  0  0  0
    1.4522   -0.5427    1.1223 H   0  0  0  0  0  0  0  0  0  0  0  0
   -0.9366   -0.5825    0.4579 H   0  0  0  0  0  0  0  0  0  0  0  0
   -2.0696   -0.5393   -1.5685 H   0  0  0  0  0  0  0  0  0  0  0  0
   -1.3673    0.9852   -2.1057 H   0  0  0  0  0  0  0  0  0  0  0  0
   -2.9257    2.2975   -0.9854 H   0  0  0  0  0  0  0  0  0  0  0  0
   -3.8655    0.8863   -1.4473 H   0  0  0  0  0  0  0  0  0  0  0  0
   -0.6801    2.4565    0.3018 H   0  0  0  0  0  0  0  0  0  0  0  0
   -0.1587    1.4774    1.6722 H   0  0  0  0  0  0  0  0  0  0  0  0
   -2.5128    2.6172    1.6902 H   0  0  0  0  0  0  0  0  0  0  0  0
   -2.2715    1.0282    2.4131 H   0  0  0  0  0  0  0  0  0  0  0  0
   -4.7598    1.3544    2.1106 H   0  0  0  0  0  0  0  0  0  0  0  0
   -4.7782    2.4973    0.7726 H   0  0  0  0  0  0  0  0  0  0  0  0
   -6.8381    2.3331   -0.3887 H   0  0  0  0  0  0  0  0  0  0  0  0
   -8.6955    1.0035   -1.3226 H   0  0  0  0  0  0  0  0  0  0  0  0
   -8.7314   -1.4606   -1.0475 H   0  0  0  0  0  0  0  0  0  0  0  0
   -6.8954   -2.5985    0.1747 H   0  0  0  0  0  0  0  0  0  0  0  0
   -5.0261   -1.2798    1.1159 H   0  0  0  0  0  0  0  0  0  0  0  0
  1  2  1  0
  2  3  2  0
  2  4  1  0
  4  5  2  0
  5  6  1  0
  6  7  1  0
  7  8  1  0
  5  9  1  0
  9 10  2  0
  9 11  1  0
 11 12  2  0
 12 13  1  0
 13 14  2  0
 14 15  1  0
 13 16  1  0
 16 17  1  0
 17 18  1  0
 18 19  1  0
 18 20  1  0
 20 21  1  0
 21 22  1  0
 20 23  1  0
 23 24  1  0
 24 25  1  0
 25 26  1  0
 26 27  1  0
 27 28  2  0
 28 29  1  0
 29 30  2  0
 30 31  1  0
 31 32  2  0
 10  1  1  0
 14 10  1  0
 19 12  1  0
 25 22  1  0
 32 27  1  0
  4 33  1  0
  6 34  1  0
  6 35  1  0
  7 36  1  0
  7 37  1  0
  8 38  1  0
  8 39  1  0
  8 40  1  0
 11 41  1  0
 15 42  1  0
 15 43  1  0
 15 44  1  0
 17 45  1  0
 17 46  1  0
 19 47  1  0
 19 48  1  0
 20 49  1  0
 21 50  1  0
 21 51  1  0
 22 52  1  0
 22 53  1  0
 23 54  1  0
 23 55  1  0
 24 56  1  0
 24 57  1  0
 26 58  1  0
 26 59  1  0
 28 60  1  0
 29 61  1  0
 30 62  1  0
 31 63  1  0
 32 64  1  0
M  END
>  <mol_id>  (13) 
OSSM_025582

>  <drugclip_rank>  (13) 
13

>  <conformer>  (13) 
13

>  <align_rmsd>  (13) 
0.556

$$$$
STK095172
     RDKit          3D

 60 62  0  0  0  0  0  0  0  0999 V2000
    7.8724   -0.7798    1.1383 C   0  0  0  0  0  0  0  0  0  0  0  0
    7.2879   -1.1453   -0.1039 O   0  0  0  0  0  0  0  0  0  0  0  0
    6.0155   -0.6986   -0.3678 C   0  0  0  0  0  0  0  0  0  0  0  0
    5.5173   -0.9765   -1.6563 C   0  0  0  0  0  0  0  0  0  0  0  0
    6.3666   -1.6491   -2.5004 O   0  0  0  0  0  0  0  0  0  0  0  0
    5.8894   -1.9683   -3.8001 C   0  0  0  0  0  0  0  0  0  0  0  0
    4.2260   -0.5614   -1.9995 C   0  0  0  0  0  0  0  0  0  0  0  0
    3.4315    0.1220   -1.0752 C   0  0  0  0  0  0  0  0  0  0  0  0
    3.9161    0.4035    0.2050 C   0  0  0  0  0  0  0  0  0  0  0  0
    5.2102   -0.0151    0.5532 C   0  0  0  0  0  0  0  0  0  0  0  0
    3.0453    1.1161    1.2114 C   0  0  0  0  0  0  0  0  0  0  0  0
    2.2177    0.1264    2.0430 C   0  0  0  0  0  0  0  0  0  0  0  0
    1.2391    0.7833    2.9249 N   0  0  0  0  0  0  0  0  0  0  0  0
    1.7935    1.5470    4.0380 C   0  0  0  0  0  0  0  0  0  0  0  0
   -0.1179    0.4516    2.9997 C   0  0  0  0  0  0  0  0  0  0  0  0
   -0.8076    0.8051    3.9617 O   0  0  0  0  0  0  0  0  0  0  0  0
   -0.7500   -0.3474    1.8474 C   0  0  0  0  0  0  0  0  0  0  0  0
   -0.7648    0.4532    0.5392 C   0  0  0  0  0  0  0  0  0  0  0  0
   -1.8581    1.5242    0.5274 C   0  0  0  0  0  0  0  0  0  0  0  0
   -2.1723   -0.8245    2.1911 C   0  0  0  0  0  0  0  0  0  0  0  0
   -3.2238    0.2839    2.0783 C   0  0  0  0  0  0  0  0  0  0  0  0
   -3.2020    1.0078    0.7977 N   0  0  0  0  0  0  0  0  0  0  0  0
   -3.7301    0.2093   -0.3283 C   0  0  0  0  0  0  0  0  0  0  0  0
   -5.2142   -0.1064   -0.2301 C   0  0  0  0  0  0  0  0  0  0  0  0
   -5.5808   -1.4149   -0.2614 N   0  0  0  0  0  0  0  0  0  0  0  0
   -6.9016   -1.6906   -0.1764 C   0  0  0  0  0  0  0  0  0  0  0  0
   -7.8872   -0.7232   -0.0668 C   0  0  0  0  0  0  0  0  0  0  0  0
   -7.4975    0.6107   -0.0421 C   0  0  0  0  0  0  0  0  0  0  0  0
   -6.1447    0.9276   -0.1251 C   0  0  0  0  0  0  0  0  0  0  0  0
    7.3349   -1.2382    1.9757 H   0  0  0  0  0  0  0  0  0  0  0  0
    8.8968   -1.1633    1.1533 H   0  0  0  0  0  0  0  0  0  0  0  0
    7.9247    0.3084    1.2474 H   0  0  0  0  0  0  0  0  0  0  0  0
    5.0207   -2.6343   -3.7488 H   0  0  0  0  0  0  0  0  0  0  0  0
    6.6856   -2.5016   -4.3283 H   0  0  0  0  0  0  0  0  0  0  0  0
    5.6618   -1.0626   -4.3737 H   0  0  0  0  0  0  0  0  0  0  0  0
    3.8067   -0.7538   -2.9814 H   0  0  0  0  0  0  0  0  0  0  0  0
    2.4300    0.4331   -1.3668 H   0  0  0  0  0  0  0  0  0  0  0  0
    5.5697    0.2018    1.5534 H   0  0  0  0  0  0  0  0  0  0  0  0
    3.6809    1.7333    1.8582 H   0  0  0  0  0  0  0  0  0  0  0  0
    2.3848    1.8210    0.6908 H   0  0  0  0  0  0  0  0  0  0  0  0
    1.7249   -0.5805    1.3738 H   0  0  0  0  0  0  0  0  0  0  0  0
    2.8751   -0.4779    2.6814 H   0  0  0  0  0  0  0  0  0  0  0  0
    1.0217    2.0822    4.5938 H   0  0  0  0  0  0  0  0  0  0  0  0
    2.5075    2.2848    3.6632 H   0  0  0  0  0  0  0  0  0  0  0  0
    2.3034    0.8566    4.7171 H   0  0  0  0  0  0  0  0  0  0  0  0
   -0.1517   -1.2569    1.7246 H   0  0  0  0  0  0  0  0  0  0  0  0
    0.1944    0.9438    0.3554 H   0  0  0  0  0  0  0  0  0  0  0  0
   -0.9160   -0.2369   -0.3001 H   0  0  0  0  0  0  0  0  0  0  0  0
   -1.6208    2.2915    1.2754 H   0  0  0  0  0  0  0  0  0  0  0  0
   -1.8450    2.0501   -0.4353 H   0  0  0  0  0  0  0  0  0  0  0  0
   -2.1992   -1.2452    3.2038 H   0  0  0  0  0  0  0  0  0  0  0  0
   -2.4418   -1.6463    1.5160 H   0  0  0  0  0  0  0  0  0  0  0  0
   -4.2164   -0.1377    2.2727 H   0  0  0  0  0  0  0  0  0  0  0  0
   -3.0745    1.0157    2.8811 H   0  0  0  0  0  0  0  0  0  0  0  0
   -3.1734   -0.7252   -0.4597 H   0  0  0  0  0  0  0  0  0  0  0  0
   -3.6049    0.7731   -1.2617 H   0  0  0  0  0  0  0  0  0  0  0  0
   -7.1535   -2.7460   -0.2033 H   0  0  0  0  0  0  0  0  0  0  0  0
   -8.9333   -1.0019   -0.0017 H   0  0  0  0  0  0  0  0  0  0  0  0
   -8.2383    1.4008    0.0460 H   0  0  0  0  0  0  0  0  0  0  0  0
   -5.8163    1.9624   -0.0944 H   0  0  0  0  0  0  0  0  0  0  0  0
  1  2  1  0
  2  3  1  0
  3  4  2  0
  4  5  1  0
  5  6  1  0
  4  7  1  0
  7  8  2  0
  8  9  1  0
  9 10  2  0
  9 11  1  0
 11 12  1  0
 12 13  1  0
 13 14  1  0
 13 15  1  0
 15 16  2  0
 15 17  1  0
 17 18  1  0
 18 19  1  0
 17 20  1  0
 20 21  1  0
 21 22  1  0
 22 23  1  0
 23 24  1  0
 24 25  2  0
 25 26  1  0
 26 27  2  0
 27 28  1  0
 28 29  2  0
 10  3  1  0
 22 19  1  0
 29 24  1  0
  1 30  1  0
  1 31  1  0
  1 32  1  0
  6 33  1  0
  6 34  1  0
  6 35  1  0
  7 36  1  0
  8 37  1  0
 10 38  1  0
 11 39  1  0
 11 40  1  0
 12 41  1  0
 12 42  1  0
 14 43  1  0
 14 44  1  0
 14 45  1  0
 17 46  1  0
 18 47  1  0
 18 48  1  0
 19 49  1  0
 19 50  1  0
 20 51  1  0
 20 52  1  0
 21 53  1  0
 21 54  1  0
 23 55  1  0
 23 56  1  0
 26 57  1  0
 27 58  1  0
 28 59  1  0
 29 60  1  0
M  END
>  <mol_id>  (14) 
STK095172

>  <drugclip_rank>  (14) 
14

>  <conformer>  (14) 
6

>  <align_rmsd>  (14) 
0.437

$$$$
OSSM_168027
     RDKit          3D

 62 67  0  0  0  0  0  0  0  0999 V2000
    6.8919    0.5719    2.0105 C   0  0  0  0  0  0  0  0  0  0  0  0
    8.3542    0.2313    2.3260 C   0  0  0  0  0  0  0  0  0  0  0  0
    9.0244   -0.1062    0.9899 C   0  0  0  0  0  0  0  0  0  0  0  0
    7.8570   -0.4341    0.1313 C   0  0  0  0  0  0  0  0  0  0  0  0
    7.9591   -1.0850   -1.1747 C   0  0  0  0  0  0  0  0  0  0  0  0
    6.7472   -1.3005   -1.8247 O   0  0  0  0  0  0  0  0  0  0  0  0
    9.0356   -1.4162   -1.6551 O   0  0  0  0  0  0  0  0  0  0  0  0
    6.6969   -0.0671    0.6793 C   0  0  0  0  0  0  0  0  0  0  0  0
    5.4456   -0.2923   -0.0166 C   0  0  0  0  0  0  0  0  0  0  0  0
    5.4955   -0.9084   -1.2741 C   0  0  0  0  0  0  0  0  0  0  0  0
    4.2043    0.0743    0.5030 C   0  0  0  0  0  0  0  0  0  0  0  0
    3.0294   -0.1791   -0.2227 C   0  0  0  0  0  0  0  0  0  0  0  0
    3.1038   -0.8177   -1.4690 C   0  0  0  0  0  0  0  0  0  0  0  0
    4.3421   -1.1654   -2.0297 C   0  0  0  0  0  0  0  0  0  0  0  0
    4.4260   -1.8528   -3.3630 C   0  0  0  0  0  0  0  0  0  0  0  0
    1.9772   -1.0985   -2.1979 O   0  0  0  0  0  0  0  0  0  0  0  0
    0.7416   -0.9683   -1.4787 C   0  0  0  0  0  0  0  0  0  0  0  0
    0.6620    0.2536   -0.6868 N   0  0  0  0  0  0  0  0  0  0  0  0
    1.6886    0.1920    0.3528 C   0  0  0  0  0  0  0  0  0  0  0  0
   -0.6704    0.5794   -0.1424 C   0  0  0  0  0  0  0  0  0  0  0  0
   -1.2876   -0.4617    0.8189 C   0  0  0  0  0  0  0  0  0  0  0  0
   -2.8199   -0.3761    0.8913 C   0  0  0  0  0  0  0  0  0  0  0  0
   -1.6801    0.9366   -1.2418 C   0  0  0  0  0  0  0  0  0  0  0  0
   -2.9689    1.5141   -0.6338 C   0  0  0  0  0  0  0  0  0  0  0  0
   -3.2607    0.9984    0.7074 N   0  0  0  0  0  0  0  0  0  0  0  0
   -4.6258    1.2774    1.1703 C   0  0  0  0  0  0  0  0  0  0  0  0
   -5.7498    0.5349    0.4773 C   0  0  0  0  0  0  0  0  0  0  0  0
   -6.1412   -0.7412    0.9102 C   0  0  0  0  0  0  0  0  0  0  0  0
   -7.1798   -1.4226    0.2727 C   0  0  0  0  0  0  0  0  0  0  0  0
   -7.8432   -0.8353   -0.8023 C   0  0  0  0  0  0  0  0  0  0  0  0
   -7.4715    0.4344   -1.2385 C   0  0  0  0  0  0  0  0  0  0  0  0
   -6.4333    1.1165   -0.6013 C   0  0  0  0  0  0  0  0  0  0  0  0
    6.7443    1.6552    1.9455 H   0  0  0  0  0  0  0  0  0  0  0  0
    6.2296    0.1652    2.7808 H   0  0  0  0  0  0  0  0  0  0  0  0
    8.3930   -0.6438    2.9881 H   0  0  0  0  0  0  0  0  0  0  0  0
    8.8630    1.0499    2.8454 H   0  0  0  0  0  0  0  0  0  0  0  0
    9.7179   -0.9451    1.1006 H   0  0  0  0  0  0  0  0  0  0  0  0
    9.5668    0.7570    0.5898 H   0  0  0  0  0  0  0  0  0  0  0  0
    4.1346    0.5601    1.4730 H   0  0  0  0  0  0  0  0  0  0  0  0
    4.3744   -2.9374   -3.2267 H   0  0  0  0  0  0  0  0  0  0  0  0
    3.6139   -1.5405   -4.0276 H   0  0  0  0  0  0  0  0  0  0  0  0
    5.3572   -1.6055   -3.8831 H   0  0  0  0  0  0  0  0  0  0  0  0
    0.6025   -1.8770   -0.8793 H   0  0  0  0  0  0  0  0  0  0  0  0
   -0.0327   -0.9773   -2.2512 H   0  0  0  0  0  0  0  0  0  0  0  0
    1.7723    1.1750    0.8323 H   0  0  0  0  0  0  0  0  0  0  0  0
    1.4400   -0.5457    1.1261 H   0  0  0  0  0  0  0  0  0  0  0  0
   -0.5366    1.5058    0.4368 H   0  0  0  0  0  0  0  0  0  0  0  0
   -1.0287   -1.4862    0.5322 H   0  0  0  0  0  0  0  0  0  0  0  0
   -0.8663   -0.3052    1.8204 H   0  0  0  0  0  0  0  0  0  0  0  0
   -3.2623   -1.0351    0.1332 H   0  0  0  0  0  0  0  0  0  0  0  0
   -3.1272   -0.7634    1.8704 H   0  0  0  0  0  0  0  0  0  0  0  0
   -1.9378    0.0434   -1.8246 H   0  0  0  0  0  0  0  0  0  0  0  0
   -1.2544    1.6662   -1.9414 H   0  0  0  0  0  0  0  0  0  0  0  0
   -3.7774    1.3103   -1.3435 H   0  0  0  0  0  0  0  0  0  0  0  0
   -2.8707    2.6044   -0.5668 H   0  0  0  0  0  0  0  0  0  0  0  0
   -4.8140    2.3574    1.0996 H   0  0  0  0  0  0  0  0  0  0  0  0
   -4.6843    1.0691    2.2474 H   0  0  0  0  0  0  0  0  0  0  0  0
   -5.6392   -1.2116    1.7524 H   0  0  0  0  0  0  0  0  0  0  0  0
   -7.4725   -2.4110    0.6169 H   0  0  0  0  0  0  0  0  0  0  0  0
   -8.6520   -1.3655   -1.2980 H   0  0  0  0  0  0  0  0  0  0  0  0
   -7.9910    0.8953   -2.0746 H   0  0  0  0  0  0  0  0  0  0  0  0
   -6.1585    2.1088   -0.9522 H   0  0  0  0  0  0  0  0  0  0  0  0
  1  2  1  0
  2  3  1  0
  3  4  1  0
  4  5  1  0
  5  6  1  0
  5  7  2  0
  4  8  2  0
  8  9  1  0
  9 10  2  0
  9 11  1  0
 11 12  2  0
 12 13  1  0
 13 14  2  0
 14 15  1  0
 13 16  1  0
 16 17  1  0
 17 18  1  0
 18 19  1  0
 18 20  1  0
 20 21  1  0
 21 22  1  0
 20 23  1  0
 23 24  1  0
 24 25  1  0
 25 26  1  0
 26 27  1  0
 27 28  2  0
 28 29  1  0
 29 30  2  0
 30 31  1  0
 31 32  2  0
  8  1  1  0
 10  6  1  0
 14 10  1  0
 19 12  1  0
 25 22  1  0
 32 27  1  0
  1 33  1  0
  1 34  1  0
  2 35  1  0
  2 36  1  0
  3 37  1  0
  3 38  1  0
 11 39  1  0
 15 40  1  0
 15 41  1  0
 15 42  1  0
 17 43  1  0
 17 44  1  0
 19 45  1  0
 19 46  1  0
 20 47  1  0
 21 48  1  0
 21 49  1  0
 22 50  1  0
 22 51  1  0
 23 52  1  0
 23 53  1  0
 24 54  1  0
 24 55  1  0
 26 56  1  0
 26 57  1  0
 28 58  1  0
 29 59  1  0
 30 60  1  0
 31 61  1  0
 32 62  1  0
M  END
>  <mol_id>  (15) 
OSSM_168027

>  <drugclip_rank>  (15) 
15

>  <conformer>  (15) 
26

>  <align_rmsd>  (15) 
0.56

$$$$
Y511-6540
     RDKit          3D

 59 62  0  0  0  0  0  0  0  0999 V2000
    5.3242   -3.2462   -0.4765 C   0  0  0  0  0  0  0  0  0  0  0  0
    6.3840   -3.7503    0.2790 C   0  0  0  0  0  0  0  0  0  0  0  0
    7.2583   -2.8781    0.9208 C   0  0  0  0  0  0  0  0  0  0  0  0
    7.0762   -1.4987    0.8087 C   0  0  0  0  0  0  0  0  0  0  0  0
    6.0159   -0.9737    0.0534 C   0  0  0  0  0  0  0  0  0  0  0  0
    5.1256   -1.8618   -0.5988 C   0  0  0  0  0  0  0  0  0  0  0  0
    5.8242    0.4131   -0.0690 C   0  0  0  0  0  0  0  0  0  0  0  0
    4.7656    0.9217   -0.8217 C   0  0  0  0  0  0  0  0  0  0  0  0
    3.8884    0.0398   -1.4541 C   0  0  0  0  0  0  0  0  0  0  0  0
    4.0636   -1.3432   -1.3546 C   0  0  0  0  0  0  0  0  0  0  0  0
    2.5424    0.7022   -2.4038 S   0  0  0  0  0  0  0  0  0  0  0  0
    1.7648   -0.4024   -2.9234 O   0  0  0  0  0  0  0  0  0  0  0  0
    3.1038    1.6985   -3.2913 O   0  0  0  0  0  0  0  0  0  0  0  0
    1.6170    1.5001   -1.2220 N   0  0  0  0  0  0  0  0  0  0  0  0
    0.9668    0.6543   -0.1776 C   0  0  0  0  0  0  0  0  0  0  0  0
   -0.3709    0.0404   -0.6464 C   0  0  0  0  0  0  0  0  0  0  0  0
   -1.3197    1.0290   -1.1922 N   0  0  0  0  0  0  0  0  0  0  0  0
   -0.6496    1.8295   -2.2459 C   0  0  0  0  0  0  0  0  0  0  0  0
    0.6423    2.4993   -1.7465 C   0  0  0  0  0  0  0  0  0  0  0  0
   -2.5980    0.4519   -1.6910 C   0  0  0  0  0  0  0  0  0  0  0  0
   -3.6981    1.5251   -1.6274 C   0  0  0  0  0  0  0  0  0  0  0  0
   -4.0316    1.9113   -0.1775 C   0  0  0  0  0  0  0  0  0  0  0  0
   -3.1762   -0.7942   -0.9674 C   0  0  0  0  0  0  0  0  0  0  0  0
   -4.1601   -0.4826    0.1730 C   0  0  0  0  0  0  0  0  0  0  0  0
   -3.8879    0.8096    0.7932 N   0  0  0  0  0  0  0  0  0  0  0  0
   -4.6865    1.0737    1.9968 C   0  0  0  0  0  0  0  0  0  0  0  0
   -4.2757    0.1980    3.1866 C   0  0  0  0  0  0  0  0  0  0  0  0
   -5.0320    0.5912    4.4477 C   0  0  0  0  0  0  0  0  0  0  0  0
    4.6538   -3.9454   -0.9720 H   0  0  0  0  0  0  0  0  0  0  0  0
    6.5269   -4.8245    0.3641 H   0  0  0  0  0  0  0  0  0  0  0  0
    8.0847   -3.2705    1.5080 H   0  0  0  0  0  0  0  0  0  0  0  0
    7.7723   -0.8344    1.3164 H   0  0  0  0  0  0  0  0  0  0  0  0
    6.5031    1.1079    0.4214 H   0  0  0  0  0  0  0  0  0  0  0  0
    4.6281    1.9971   -0.9125 H   0  0  0  0  0  0  0  0  0  0  0  0
    3.3768   -2.0161   -1.8642 H   0  0  0  0  0  0  0  0  0  0  0  0
    1.6439   -0.1369    0.1586 H   0  0  0  0  0  0  0  0  0  0  0  0
    0.7902    1.2912    0.6990 H   0  0  0  0  0  0  0  0  0  0  0  0
   -0.1828   -0.7499   -1.3812 H   0  0  0  0  0  0  0  0  0  0  0  0
   -0.8041   -0.4307    0.2427 H   0  0  0  0  0  0  0  0  0  0  0  0
   -0.4250    1.1998   -3.1156 H   0  0  0  0  0  0  0  0  0  0  0  0
   -1.3127    2.6291   -2.5919 H   0  0  0  0  0  0  0  0  0  0  0  0
    0.4104    3.2050   -0.9385 H   0  0  0  0  0  0  0  0  0  0  0  0
    1.0948    3.0960   -2.5455 H   0  0  0  0  0  0  0  0  0  0  0  0
   -2.4490    0.1495   -2.7367 H   0  0  0  0  0  0  0  0  0  0  0  0
   -3.4364    2.4236   -2.1961 H   0  0  0  0  0  0  0  0  0  0  0  0
   -4.6028    1.1276   -2.1085 H   0  0  0  0  0  0  0  0  0  0  0  0
   -5.0548    2.3100   -0.1724 H   0  0  0  0  0  0  0  0  0  0  0  0
   -3.3721    2.7292    0.1374 H   0  0  0  0  0  0  0  0  0  0  0  0
   -3.7279   -1.3851   -1.7126 H   0  0  0  0  0  0  0  0  0  0  0  0
   -2.3938   -1.4733   -0.6186 H   0  0  0  0  0  0  0  0  0  0  0  0
   -5.1887   -0.5097   -0.2112 H   0  0  0  0  0  0  0  0  0  0  0  0
   -4.0823   -1.3012    0.8961 H   0  0  0  0  0  0  0  0  0  0  0  0
   -4.5408    2.1202    2.2963 H   0  0  0  0  0  0  0  0  0  0  0  0
   -5.7567    0.9496    1.7873 H   0  0  0  0  0  0  0  0  0  0  0  0
   -4.4758   -0.8589    2.9827 H   0  0  0  0  0  0  0  0  0  0  0  0
   -3.1992    0.2977    3.3702 H   0  0  0  0  0  0  0  0  0  0  0  0
   -4.8280    1.6316    4.7201 H   0  0  0  0  0  0  0  0  0  0  0  0
   -6.1118    0.4768    4.3087 H   0  0  0  0  0  0  0  0  0  0  0  0
   -4.7277   -0.0445    5.2853 H   0  0  0  0  0  0  0  0  0  0  0  0
  1  2  2  0
  2  3  1  0
  3  4  2  0
  4  5  1  0
  5  6  2  0
  5  7  1  0
  7  8  2  0
  8  9  1  0
  9 10  2  0
  9 11  1  0
 11 12  2  0
 11 13  2  0
 11 14  1  0
 14 15  1  0
 15 16  1  0
 16 17  1  0
 17 18  1  0
 18 19  1  0
 17 20  1  0
 20 21  1  0
 21 22  1  0
 20 23  1  0
 23 24  1  0
 24 25  1  0
 25 26  1  0
 26 27  1  0
 27 28  1  0
  6  1  1  0
 10  6  1  0
 19 14  1  0
 25 22  1  0
  1 29  1  0
  2 30  1  0
  3 31  1  0
  4 32  1  0
  7 33  1  0
  8 34  1  0
 10 35  1  0
 15 36  1  0
 15 37  1  0
 16 38  1  0
 16 39  1  0
 18 40  1  0
 18 41  1  0
 19 42  1  0
 19 43  1  0
 20 44  1  0
 21 45  1  0
 21 46  1  0
 22 47  1  0
 22 48  1  0
 23 49  1  0
 23 50  1  0
 24 51  1  0
 24 52  1  0
 26 53  1  0
 26 54  1  0
 27 55  1  0
 27 56  1  0
 28 57  1  0
 28 58  1  0
 28 59  1  0
M  END
>  <mol_id>  (16) 
Y511-6540

>  <drugclip_rank>  (16) 
16

>  <conformer>  (16) 
29

>  <align_rmsd>  (16) 
0.528

$$$$
MCULE-5760115115
     RDKit          3D

 58 61  0  0  0  0  0  0  0  0999 V2000
   -6.2468   -1.7767    1.5950 C   0  0  0  0  0  0  0  0  0  0  0  0
   -6.9622   -0.7536    0.7634 C   0  0  0  0  0  0  0  0  0  0  0  0
   -6.5734    0.5939    0.7267 C   0  0  0  0  0  0  0  0  0  0  0  0
   -7.2039    1.5149   -0.0552 N   0  0  0  0  0  0  0  0  0  0  0  0
   -8.2362    1.0945   -0.8154 C   0  0  0  0  0  0  0  0  0  0  0  0
   -8.6836   -0.2116   -0.8470 C   0  0  0  0  0  0  0  0  0  0  0  0
   -8.0333   -1.1458   -0.0493 C   0  0  0  0  0  0  0  0  0  0  0  0
   -5.4030    1.1230    1.5440 C   0  0  0  0  0  0  0  0  0  0  0  0
   -4.0680    0.6473    1.1082 N   0  0  0  0  0  0  0  0  0  0  0  0
   -3.0197    1.1064    2.0321 C   0  0  0  0  0  0  0  0  0  0  0  0
   -2.1862    2.2608    1.4822 C   0  0  0  0  0  0  0  0  0  0  0  0
   -1.4575    1.8154    0.2041 C   0  0  0  0  0  0  0  0  0  0  0  0
   -0.8678    2.9323   -0.5748 N   0  0  0  0  0  0  0  0  0  0  0  0
   -1.6788    4.1285   -0.7835 C   0  0  0  0  0  0  0  0  0  0  0  0
    0.3290    2.8396   -1.2904 C   0  0  0  0  0  0  0  0  0  0  0  0
    0.7537    3.7654   -1.9834 O   0  0  0  0  0  0  0  0  0  0  0  0
    1.1245    1.5547   -1.1563 C   0  0  0  0  0  0  0  0  0  0  0  0
    2.3238    1.5490   -2.1020 C   0  0  0  0  0  0  0  0  0  0  0  0
    3.1365    0.3680   -1.9306 N   0  0  0  0  0  0  0  0  0  0  0  0
    4.2497    0.2545   -1.1323 C   0  0  0  0  0  0  0  0  0  0  0  0
    4.6540   -1.0615   -1.2349 C   0  0  0  0  0  0  0  0  0  0  0  0
    5.7590   -1.5358   -0.5615 C   0  0  0  0  0  0  0  0  0  0  0  0
    6.4615   -0.6296    0.2382 C   0  0  0  0  0  0  0  0  0  0  0  0
    6.0434    0.7116    0.3444 C   0  0  0  0  0  0  0  0  0  0  0  0
    4.9184    1.1694   -0.3491 C   0  0  0  0  0  0  0  0  0  0  0  0
    3.8350   -1.8132   -2.0620 O   0  0  0  0  0  0  0  0  0  0  0  0
    2.8735   -0.8770   -2.4675 C   0  0  0  0  0  0  0  0  0  0  0  0
    1.9273   -1.1634   -3.1894 O   0  0  0  0  0  0  0  0  0  0  0  0
   -2.3405    0.9112   -0.6745 C   0  0  0  0  0  0  0  0  0  0  0  0
   -3.8172    1.0145   -0.2975 C   0  0  0  0  0  0  0  0  0  0  0  0
   -6.1131   -1.4245    2.6221 H   0  0  0  0  0  0  0  0  0  0  0  0
   -5.2715   -2.0087    1.1564 H   0  0  0  0  0  0  0  0  0  0  0  0
   -6.8192   -2.7094    1.6528 H   0  0  0  0  0  0  0  0  0  0  0  0
   -8.7079    1.8625   -1.4216 H   0  0  0  0  0  0  0  0  0  0  0  0
   -9.5158   -0.4975   -1.4804 H   0  0  0  0  0  0  0  0  0  0  0  0
   -8.3625   -2.1818   -0.0669 H   0  0  0  0  0  0  0  0  0  0  0  0
   -5.4288    2.2214    1.5293 H   0  0  0  0  0  0  0  0  0  0  0  0
   -5.5806    0.8334    2.5874 H   0  0  0  0  0  0  0  0  0  0  0  0
   -3.4307    1.3846    3.0109 H   0  0  0  0  0  0  0  0  0  0  0  0
   -2.3554    0.2545    2.2289 H   0  0  0  0  0  0  0  0  0  0  0  0
   -2.8464    3.1175    1.3089 H   0  0  0  0  0  0  0  0  0  0  0  0
   -1.4503    2.5852    2.2272 H   0  0  0  0  0  0  0  0  0  0  0  0
   -0.6234    1.1916    0.5426 H   0  0  0  0  0  0  0  0  0  0  0  0
   -1.2622    4.7884   -1.5472 H   0  0  0  0  0  0  0  0  0  0  0  0
   -2.6812    3.8355   -1.1042 H   0  0  0  0  0  0  0  0  0  0  0  0
   -1.7352    4.6869    0.1536 H   0  0  0  0  0  0  0  0  0  0  0  0
    0.4819    0.6984   -1.3874 H   0  0  0  0  0  0  0  0  0  0  0  0
    1.4733    1.4686   -0.1205 H   0  0  0  0  0  0  0  0  0  0  0  0
    2.9481    2.4401   -1.9695 H   0  0  0  0  0  0  0  0  0  0  0  0
    1.9650    1.5606   -3.1394 H   0  0  0  0  0  0  0  0  0  0  0  0
    6.0701   -2.5704   -0.6497 H   0  0  0  0  0  0  0  0  0  0  0  0
    7.3416   -0.9622    0.7843 H   0  0  0  0  0  0  0  0  0  0  0  0
    6.6061    1.3991    0.9721 H   0  0  0  0  0  0  0  0  0  0  0  0
    4.6016    2.2021   -0.2681 H   0  0  0  0  0  0  0  0  0  0  0  0
   -2.2139    1.1422   -1.7387 H   0  0  0  0  0  0  0  0  0  0  0  0
   -2.0201   -0.1319   -0.5488 H   0  0  0  0  0  0  0  0  0  0  0  0
   -4.3836    0.3428   -0.9528 H   0  0  0  0  0  0  0  0  0  0  0  0
   -4.1617    2.0351   -0.5067 H   0  0  0  0  0  0  0  0  0  0  0  0
  1  2  1  0
  2  3  2  0
  3  4  1  0
  4  5  2  0
  5  6  1  0
  6  7  2  0
  3  8  1  0
  8  9  1  0
  9 10  1  0
 10 11  1  0
 11 12  1  0
 12 13  1  0
 13 14  1  0
 13 15  1  0
 15 16  2  0
 15 17  1  0
 17 18  1  0
 18 19  1  0
 19 20  1  0
 20 21  1  0
 21 22  2  0
 22 23  1  0
 23 24  2  0
 24 25  1  0
 21 26  1  0
 26 27  1  0
 27 28  2  0
 12 29  1  0
 29 30  1  0
  7  2  1  0
 30  9  1  0
 27 19  1  0
 25 20  2  0
  1 31  1  0
  1 32  1  0
  1 33  1  0
  5 34  1  0
  6 35  1  0
  7 36  1  0
  8 37  1  0
  8 38  1  0
 10 39  1  0
 10 40  1  0
 11 41  1  0
 11 42  1  0
 12 43  1  0
 14 44  1  0
 14 45  1  0
 14 46  1  0
 17 47  1  0
 17 48  1  0
 18 49  1  0
 18 50  1  0
 22 51  1  0
 23 52  1  0
 24 53  1  0
 25 54  1  0
 29 55  1  0
 29 56  1  0
 30 57  1  0
 30 58  1  0
M  END
>  <mol_id>  (17) 
MCULE-5760115115

>  <drugclip_rank>  (17) 
17

>  <conformer>  (17) 
17

>  <align_rmsd>  (17) 
0.784

$$$$
Z85145044
     RDKit          3D

 67 69  0  0  0  0  0  0  0  0999 V2000
   16.0444    7.3763   -4.1835 C   0  0  0  0  0  0  0  0  0  0  0  0
   15.2432    6.2797   -4.8831 C   0  0  0  0  0  0  0  0  0  0  0  0
   14.1665    5.7149   -4.0517 N   0  0  0  0  0  0  0  0  0  0  0  0
   13.1915    6.7335   -3.6236 C   0  0  0  0  0  0  0  0  0  0  0  0
   11.8548    6.1186   -3.2150 C   0  0  0  0  0  0  0  0  0  0  0  0
   11.1953    5.4187   -4.4103 C   0  0  0  0  0  0  0  0  0  0  0  0
   12.2302    4.8564   -5.3942 C   0  0  0  0  0  0  0  0  0  0  0  0
   13.5491    4.5432   -4.6927 C   0  0  0  0  0  0  0  0  0  0  0  0
   10.2859    4.3732   -3.9492 N   0  0  0  0  0  0  0  0  0  0  0  0
    9.0138    4.6649   -3.5106 C   0  0  0  0  0  0  0  0  0  0  0  0
    8.5311    5.7932   -3.5455 O   0  0  0  0  0  0  0  0  0  0  0  0
    8.2219    3.4900   -2.9596 C   0  0  0  0  0  0  0  0  0  0  0  0
    8.0922    2.3550   -3.9730 C   0  0  0  0  0  0  0  0  0  0  0  0
    7.2325    1.2295   -3.4075 C   0  0  0  0  0  0  0  0  0  0  0  0
    7.8044    0.7411   -2.1312 N   0  0  0  0  0  0  0  0  0  0  0  0
    7.9835    1.8044   -1.1125 C   0  0  0  0  0  0  0  0  0  0  0  0
    8.8301    2.9480   -1.6681 C   0  0  0  0  0  0  0  0  0  0  0  0
    7.2290   -0.7786   -1.5571 S   0  0  0  0  0  0  0  0  0  0  0  0
    8.0216   -1.1225   -0.3950 O   0  0  0  0  0  0  0  0  0  0  0  0
    7.2191   -1.7023   -2.6708 O   0  0  0  0  0  0  0  0  0  0  0  0
    5.5021   -0.4586   -1.0332 C   0  0  0  0  0  0  0  0  0  0  0  0
    4.4282   -0.6058   -1.9728 C   0  0  0  0  0  0  0  0  0  0  0  0
    4.6035   -1.0551   -3.4078 C   0  0  0  0  0  0  0  0  0  0  0  0
    3.0933   -0.4138   -1.5300 C   0  0  0  0  0  0  0  0  0  0  0  0
    1.8987   -0.5531   -2.4482 C   0  0  0  0  0  0  0  0  0  0  0  0
    2.8409   -0.0633   -0.2014 C   0  0  0  0  0  0  0  0  0  0  0  0
    3.8704    0.0485    0.7374 C   0  0  0  0  0  0  0  0  0  0  0  0
    3.4774    0.3733    2.1586 C   0  0  0  0  0  0  0  0  0  0  0  0
    5.2176   -0.1356    0.3355 C   0  0  0  0  0  0  0  0  0  0  0  0
    6.2772   -0.0631    1.4137 C   0  0  0  0  0  0  0  0  0  0  0  0
   15.4337    8.2597   -3.9755 H   0  0  0  0  0  0  0  0  0  0  0  0
   16.8708    7.6987   -4.8272 H   0  0  0  0  0  0  0  0  0  0  0  0
   16.4700    7.0120   -3.2418 H   0  0  0  0  0  0  0  0  0  0  0  0
   15.9523    5.4829   -5.1411 H   0  0  0  0  0  0  0  0  0  0  0  0
   14.8370    6.6669   -5.8273 H   0  0  0  0  0  0  0  0  0  0  0  0
   13.0077    7.4639   -4.4225 H   0  0  0  0  0  0  0  0  0  0  0  0
   13.6006    7.2817   -2.7682 H   0  0  0  0  0  0  0  0  0  0  0  0
   11.1855    6.8967   -2.8260 H   0  0  0  0  0  0  0  0  0  0  0  0
   12.0126    5.4118   -2.3884 H   0  0  0  0  0  0  0  0  0  0  0  0
   10.5897    6.1536   -4.9586 H   0  0  0  0  0  0  0  0  0  0  0  0
   12.4180    5.6001   -6.1784 H   0  0  0  0  0  0  0  0  0  0  0  0
   11.8465    3.9607   -5.9003 H   0  0  0  0  0  0  0  0  0  0  0  0
   14.2364    4.0593   -5.3973 H   0  0  0  0  0  0  0  0  0  0  0  0
   13.3652    3.7921   -3.9119 H   0  0  0  0  0  0  0  0  0  0  0  0
   10.6891    3.4783   -3.7027 H   0  0  0  0  0  0  0  0  0  0  0  0
    7.2170    3.8728   -2.7406 H   0  0  0  0  0  0  0  0  0  0  0  0
    9.0846    1.9504   -4.2208 H   0  0  0  0  0  0  0  0  0  0  0  0
    7.6610    2.7223   -4.9153 H   0  0  0  0  0  0  0  0  0  0  0  0
    7.2382    0.4291   -4.1512 H   0  0  0  0  0  0  0  0  0  0  0  0
    6.2055    1.5754   -3.2558 H   0  0  0  0  0  0  0  0  0  0  0  0
    8.5180    1.4082   -0.2456 H   0  0  0  0  0  0  0  0  0  0  0  0
    7.0086    2.1832   -0.7898 H   0  0  0  0  0  0  0  0  0  0  0  0
    8.9079    3.7479   -0.9237 H   0  0  0  0  0  0  0  0  0  0  0  0
    9.8477    2.5873   -1.8502 H   0  0  0  0  0  0  0  0  0  0  0  0
    3.8353   -0.6258   -4.0635 H   0  0  0  0  0  0  0  0  0  0  0  0
    4.5369   -2.1484   -3.4641 H   0  0  0  0  0  0  0  0  0  0  0  0
    5.5343   -0.7261   -3.8610 H   0  0  0  0  0  0  0  0  0  0  0  0
    1.9519   -1.4812   -3.0251 H   0  0  0  0  0  0  0  0  0  0  0  0
    1.8395    0.3049   -3.1227 H   0  0  0  0  0  0  0  0  0  0  0  0
    0.9614   -0.5951   -1.8836 H   0  0  0  0  0  0  0  0  0  0  0  0
    1.8111    0.0932    0.1197 H   0  0  0  0  0  0  0  0  0  0  0  0
    2.3929    0.3285    2.2998 H   0  0  0  0  0  0  0  0  0  0  0  0
    3.9142   -0.3468    2.8563 H   0  0  0  0  0  0  0  0  0  0  0  0
    3.8028    1.3862    2.4164 H   0  0  0  0  0  0  0  0  0  0  0  0
    5.9449    0.4894    2.2942 H   0  0  0  0  0  0  0  0  0  0  0  0
    6.5544   -1.0693    1.7414 H   0  0  0  0  0  0  0  0  0  0  0  0
    7.1561    0.4888    1.0897 H   0  0  0  0  0  0  0  0  0  0  0  0
  1  2  1  0
  2  3  1  0
  3  4  1  0
  4  5  1  0
  5  6  1  0
  6  7  1  0
  7  8  1  0
  6  9  1  0
  9 10  1  0
 10 11  2  0
 10 12  1  0
 12 13  1  0
 13 14  1  0
 14 15  1  0
 15 16  1  0
 16 17  1  0
 15 18  1  0
 18 19  2  0
 18 20  2  0
 18 21  1  0
 21 22  2  0
 22 23  1  0
 22 24  1  0
 24 25  1  0
 24 26  2  0
 26 27  1  0
 27 28  1  0
 27 29  2  0
 29 30  1  0
  8  3  1  0
 17 12  1  0
 29 21  1  0
  1 31  1  0
  1 32  1  0
  1 33  1  0
  2 34  1  0
  2 35  1  0
  4 36  1  0
  4 37  1  0
  5 38  1  0
  5 39  1  0
  6 40  1  0
  7 41  1  0
  7 42  1  0
  8 43  1  0
  8 44  1  0
  9 45  1  0
 12 46  1  0
 13 47  1  0
 13 48  1  0
 14 49  1  0
 14 50  1  0
 16 51  1  0
 16 52  1  0
 17 53  1  0
 17 54  1  0
 23 55  1  0
 23 56  1  0
 23 57  1  0
 25 58  1  0
 25 59  1  0
 25 60  1  0
 26 61  1  0
 28 62  1  0
 28 63  1  0
 28 64  1  0
 30 65  1  0
 30 66  1  0
 30 67  1  0
M  END
>  <mol_id>  (18) 
Z85145044

>  <drugclip_rank>  (18) 
18

>  <conformer>  (18) 
23

>  <align_rmsd>  (18) 
1.047

$$$$
Z4493401875
     RDKit          3D

 56 59  0  0  0  0  0  0  0  0999 V2000
    8.0010   -0.4887    1.1093 C   0  0  0  0  0  0  0  0  0  0  0  0
    7.5390   -0.9685   -0.1449 O   0  0  0  0  0  0  0  0  0  0  0  0
    6.2056   -0.8123   -0.4392 C   0  0  0  0  0  0  0  0  0  0  0  0
    5.2752   -0.2106    0.4236 C   0  0  0  0  0  0  0  0  0  0  0  0
    5.7933   -1.3101   -1.7069 C   0  0  0  0  0  0  0  0  0  0  0  0
    6.7795   -1.8812   -2.4748 O   0  0  0  0  0  0  0  0  0  0  0  0
    6.4080   -2.3927   -3.7476 C   0  0  0  0  0  0  0  0  0  0  0  0
    4.4569   -1.2017   -2.1012 C   0  0  0  0  0  0  0  0  0  0  0  0
    3.5749   -0.5994   -1.2225 C   0  0  0  0  0  0  0  0  0  0  0  0
    3.9540   -0.1076    0.0155 C   0  0  0  0  0  0  0  0  0  0  0  0
    2.1495   -0.3618   -1.3988 C   0  0  0  0  0  0  0  0  0  0  0  0
    1.5293   -0.7248   -2.3826 O   0  0  0  0  0  0  0  0  0  0  0  0
    1.6075    0.4128   -0.2065 C   0  0  0  0  0  0  0  0  0  0  0  0
    2.8040    0.4665    0.7793 C   0  0  0  0  0  0  0  0  0  0  0  0
    0.3844   -0.2641    0.4261 C   0  0  0  0  0  0  0  0  0  0  0  0
   -0.9361   -0.0549   -0.3464 C   0  0  0  0  0  0  0  0  0  0  0  0
   -1.4616    1.3922   -0.2660 C   0  0  0  0  0  0  0  0  0  0  0  0
   -2.5489    1.5509    0.7972 C   0  0  0  0  0  0  0  0  0  0  0  0
   -3.7232    0.6921    0.5877 N   0  0  0  0  0  0  0  0  0  0  0  0
   -3.4079   -0.5518   -0.1415 C   0  0  0  0  0  0  0  0  0  0  0  0
   -1.9964   -1.0499    0.1633 C   0  0  0  0  0  0  0  0  0  0  0  0
   -4.8220    1.4306   -0.0701 C   0  0  0  0  0  0  0  0  0  0  0  0
   -6.1090    0.6601   -0.0270 C   0  0  0  0  0  0  0  0  0  0  0  0
   -6.7325    0.3268   -1.1670 N   0  0  0  0  0  0  0  0  0  0  0  0
   -7.8700   -0.3593   -0.7865 O   0  0  0  0  0  0  0  0  0  0  0  0
   -7.9250   -0.4283    0.5642 C   0  0  0  0  0  0  0  0  0  0  0  0
   -6.8360    0.2058    1.1110 C   0  0  0  0  0  0  0  0  0  0  0  0
   -6.4904    0.3626    2.5394 C   0  0  0  0  0  0  0  0  0  0  0  0
    7.5146   -1.0151    1.9371 H   0  0  0  0  0  0  0  0  0  0  0  0
    9.0742   -0.6932    1.1710 H   0  0  0  0  0  0  0  0  0  0  0  0
    7.8641    0.5944    1.1928 H   0  0  0  0  0  0  0  0  0  0  0  0
    5.5562    0.1721    1.3979 H   0  0  0  0  0  0  0  0  0  0  0  0
    6.0304   -1.5970   -4.3981 H   0  0  0  0  0  0  0  0  0  0  0  0
    7.3060   -2.8066   -4.2164 H   0  0  0  0  0  0  0  0  0  0  0  0
    5.6799   -3.2046   -3.6499 H   0  0  0  0  0  0  0  0  0  0  0  0
    4.0859   -1.5620   -3.0530 H   0  0  0  0  0  0  0  0  0  0  0  0
    1.3842    1.4303   -0.5451 H   0  0  0  0  0  0  0  0  0  0  0  0
    2.6222   -0.1282    1.6813 H   0  0  0  0  0  0  0  0  0  0  0  0
    3.0090    1.5013    1.0737 H   0  0  0  0  0  0  0  0  0  0  0  0
    0.5813   -1.3416    0.5080 H   0  0  0  0  0  0  0  0  0  0  0  0
    0.2501    0.1101    1.4494 H   0  0  0  0  0  0  0  0  0  0  0  0
   -0.7587   -0.2760   -1.4057 H   0  0  0  0  0  0  0  0  0  0  0  0
   -1.8776    1.6750   -1.2421 H   0  0  0  0  0  0  0  0  0  0  0  0
   -0.6543    2.1036   -0.0651 H   0  0  0  0  0  0  0  0  0  0  0  0
   -2.8320    2.6076    0.8787 H   0  0  0  0  0  0  0  0  0  0  0  0
   -2.1205    1.2952    1.7749 H   0  0  0  0  0  0  0  0  0  0  0  0
   -3.4972   -0.4123   -1.2273 H   0  0  0  0  0  0  0  0  0  0  0  0
   -4.1239   -1.3298    0.1474 H   0  0  0  0  0  0  0  0  0  0  0  0
   -1.8361   -2.0259   -0.3109 H   0  0  0  0  0  0  0  0  0  0  0  0
   -1.8935   -1.2111    1.2447 H   0  0  0  0  0  0  0  0  0  0  0  0
   -5.0041    2.3737    0.4618 H   0  0  0  0  0  0  0  0  0  0  0  0
   -4.5551    1.6942   -1.1017 H   0  0  0  0  0  0  0  0  0  0  0  0
   -8.7791   -0.9499    0.9695 H   0  0  0  0  0  0  0  0  0  0  0  0
   -7.3474    0.1341    3.1811 H   0  0  0  0  0  0  0  0  0  0  0  0
   -6.1764    1.3891    2.7537 H   0  0  0  0  0  0  0  0  0  0  0  0
   -5.6736   -0.3133    2.8116 H   0  0  0  0  0  0  0  0  0  0  0  0
  1  2  1  0
  2  3  1  0
  3  4  2  0
  3  5  1  0
  5  6  1  0
  6  7  1  0
  5  8  2  0
  8  9  1  0
  9 10  2  0
  9 11  1  0
 11 12  2  0
 11 13  1  0
 13 14  1  0
 13 15  1  0
 15 16  1  0
 16 17  1  0
 17 18  1  0
 18 19  1  0
 19 20  1  0
 20 21  1  0
 19 22  1  0
 22 23  1  0
 23 24  2  0
 24 25  1  0
 25 26  1  0
 26 27  2  0
 27 28  1  0
 10  4  1  0
 14 10  1  0
 21 16  1  0
 27 23  1  0
  1 29  1  0
  1 30  1  0
  1 31  1  0
  4 32  1  0
  7 33  1  0
  7 34  1  0
  7 35  1  0
  8 36  1  0
 13 37  1  0
 14 38  1  0
 14 39  1  0
 15 40  1  0
 15 41  1  0
 16 42  1  0
 17 43  1  0
 17 44  1  0
 18 45  1  0
 18 46  1  0
 20 47  1  0
 20 48  1  0
 21 49  1  0
 21 50  1  0
 22 51  1  0
 22 52  1  0
 26 53  1  0
 28 54  1  0
 28 55  1  0
 28 56  1  0
M  END
>  <mol_id>  (19) 
Z4493401875

>  <drugclip_rank>  (19) 
19

>  <conformer>  (19) 
24

>  <align_rmsd>  (19) 
0.474

$$$$
MCULE-5121538438
     RDKit          3D

 59 61  0  0  0  0  0  0  0  0999 V2000
    7.6084    1.9360    0.7772 N   0  0  0  0  0  0  0  0  0  0  0  0
    6.7554    1.2834    0.3370 C   0  0  0  0  0  0  0  0  0  0  0  0
    5.7008    0.4741   -0.1993 C   0  0  0  0  0  0  0  0  0  0  0  0
    5.1098    0.8086   -1.4205 C   0  0  0  0  0  0  0  0  0  0  0  0
    4.0802    0.0197   -1.9397 C   0  0  0  0  0  0  0  0  0  0  0  0
    3.6198   -1.1057   -1.2399 C   0  0  0  0  0  0  0  0  0  0  0  0
    4.2306   -1.4447   -0.0238 C   0  0  0  0  0  0  0  0  0  0  0  0
    5.2610   -0.6565    0.4962 C   0  0  0  0  0  0  0  0  0  0  0  0
    2.5173   -1.9759   -1.8049 C   0  0  0  0  0  0  0  0  0  0  0  0
    1.5179   -1.2319   -2.4999 O   0  0  0  0  0  0  0  0  0  0  0  0
    0.5614   -0.5444   -1.7865 C   0  0  0  0  0  0  0  0  0  0  0  0
    0.4316   -0.4612   -0.4504 C   0  0  0  0  0  0  0  0  0  0  0  0
   -0.5469    0.2543    0.2452 N   0  0  0  0  0  0  0  0  0  0  0  0
   -1.5124    0.9690   -0.4987 C   0  0  0  0  0  0  0  0  0  0  0  0
   -1.4841    0.9784   -1.8453 C   0  0  0  0  0  0  0  0  0  0  0  0
   -0.4487    0.2208   -2.5823 C   0  0  0  0  0  0  0  0  0  0  0  0
   -0.4432    0.2413   -3.8108 O   0  0  0  0  0  0  0  0  0  0  0  0
   -2.6109    1.7765    0.1971 C   0  0  0  0  0  0  0  0  0  0  0  0
   -3.5938    0.9638    0.9333 N   0  0  0  0  0  0  0  0  0  0  0  0
   -4.4999    1.7879    1.7435 C   0  0  0  0  0  0  0  0  0  0  0  0
   -5.8271    2.0997    1.0551 C   0  0  0  0  0  0  0  0  0  0  0  0
   -6.6181    0.8221    0.6750 C   0  0  0  0  0  0  0  0  0  0  0  0
   -5.6582   -0.3902    0.6350 C   0  0  0  0  0  0  0  0  0  0  0  0
   -4.3021    0.0175    0.0601 C   0  0  0  0  0  0  0  0  0  0  0  0
   -7.8060    0.6162    1.5483 N   0  0  0  0  0  0  0  0  0  0  0  0
   -8.8443    1.6254    1.2849 C   0  0  0  0  0  0  0  0  0  0  0  0
   -8.4118   -0.7118    1.3889 C   0  0  0  0  0  0  0  0  0  0  0  0
   -0.4806    0.2998    1.7220 C   0  0  0  0  0  0  0  0  0  0  0  0
    0.4622    1.4033    2.1819 C   0  0  0  0  0  0  0  0  0  0  0  0
    5.4440    1.6821   -1.9776 H   0  0  0  0  0  0  0  0  0  0  0  0
    3.6313    0.2916   -2.8948 H   0  0  0  0  0  0  0  0  0  0  0  0
    3.9078   -2.3249    0.5291 H   0  0  0  0  0  0  0  0  0  0  0  0
    5.7189   -0.9324    1.4445 H   0  0  0  0  0  0  0  0  0  0  0  0
    2.0581   -2.6137   -1.0396 H   0  0  0  0  0  0  0  0  0  0  0  0
    2.9751   -2.6532   -2.5356 H   0  0  0  0  0  0  0  0  0  0  0  0
    1.1219   -0.9655    0.2153 H   0  0  0  0  0  0  0  0  0  0  0  0
   -2.1986    1.5154   -2.4551 H   0  0  0  0  0  0  0  0  0  0  0  0
   -2.1123    2.4683    0.8881 H   0  0  0  0  0  0  0  0  0  0  0  0
   -3.1336    2.4171   -0.5269 H   0  0  0  0  0  0  0  0  0  0  0  0
   -4.0165    2.7223    2.0549 H   0  0  0  0  0  0  0  0  0  0  0  0
   -4.7046    1.2498    2.6783 H   0  0  0  0  0  0  0  0  0  0  0  0
   -5.6367    2.6819    0.1436 H   0  0  0  0  0  0  0  0  0  0  0  0
   -6.4000    2.7625    1.7114 H   0  0  0  0  0  0  0  0  0  0  0  0
   -6.9833    0.9633   -0.3532 H   0  0  0  0  0  0  0  0  0  0  0  0
   -5.5141   -0.8140    1.6378 H   0  0  0  0  0  0  0  0  0  0  0  0
   -6.0849   -1.1852    0.0112 H   0  0  0  0  0  0  0  0  0  0  0  0
   -4.4688    0.4439   -0.9382 H   0  0  0  0  0  0  0  0  0  0  0  0
   -3.6862   -0.8802   -0.0672 H   0  0  0  0  0  0  0  0  0  0  0  0
   -9.6928    1.4865    1.9652 H   0  0  0  0  0  0  0  0  0  0  0  0
   -9.2188    1.5679    0.2562 H   0  0  0  0  0  0  0  0  0  0  0  0
   -8.4867    2.6436    1.4607 H   0  0  0  0  0  0  0  0  0  0  0  0
   -7.7409   -1.5027    1.7385 H   0  0  0  0  0  0  0  0  0  0  0  0
   -8.6879   -0.9153    0.3480 H   0  0  0  0  0  0  0  0  0  0  0  0
   -9.3142   -0.8023    2.0054 H   0  0  0  0  0  0  0  0  0  0  0  0
   -0.1216   -0.6636    2.1067 H   0  0  0  0  0  0  0  0  0  0  0  0
   -1.4626    0.4412    2.1785 H   0  0  0  0  0  0  0  0  0  0  0  0
    0.5077    1.4307    3.2750 H   0  0  0  0  0  0  0  0  0  0  0  0
    1.4772    1.2398    1.8046 H   0  0  0  0  0  0  0  0  0  0  0  0
    0.1297    2.3847    1.8296 H   0  0  0  0  0  0  0  0  0  0  0  0
  1  2  3  0
  2  3  1  0
  3  4  2  0
  4  5  1  0
  5  6  2  0
  6  7  1  0
  7  8  2  0
  6  9  1  0
  9 10  1  0
 10 11  1  0
 11 12  2  0
 12 13  1  0
 13 14  1  0
 14 15  2  0
 15 16  1  0
 16 17  2  0
 14 18  1  0
 18 19  1  0
 19 20  1  0
 20 21  1  0
 21 22  1  0
 22 23  1  0
 23 24  1  0
 22 25  1  0
 25 26  1  0
 25 27  1  0
 13 28  1  0
 28 29  1  0
  8  3  1  0
 16 11  1  0
 24 19  1  0
  4 30  1  0
  5 31  1  0
  7 32  1  0
  8 33  1  0
  9 34  1  0
  9 35  1  0
 12 36  1  0
 15 37  1  0
 18 38  1  0
 18 39  1  0
 20 40  1  0
 20 41  1  0
 21 42  1  0
 21 43  1  0
 22 44  1  0
 23 45  1  0
 23 46  1  0
 24 47  1  0
 24 48  1  0
 26 49  1  0
 26 50  1  0
 26 51  1  0
 27 52  1  0
 27 53  1  0
 27 54  1  0
 28 55  1  0
 28 56  1  0
 29 57  1  0
 29 58  1  0
 29 59  1  0
M  END
>  <mol_id>  (20) 
MCULE-5121538438

>  <drugclip_rank>  (20) 
20

>  <conformer>  (20) 
33

>  <align_rmsd>  (20) 
0.223

$$$$
STK597514
     RDKit          3D

 57 61  0  0  0  0  0  0  0  0999 V2000
   -1.4908   -0.5721    1.7673 C   0  0  0  0  0  0  0  0  0  0  0  0
   -2.2031   -1.6111    2.3704 C   0  0  0  0  0  0  0  0  0  0  0  0
   -2.9121   -2.5190    1.5874 C   0  0  0  0  0  0  0  0  0  0  0  0
   -2.9109   -2.3880    0.2010 C   0  0  0  0  0  0  0  0  0  0  0  0
   -2.2000   -1.3493   -0.4030 C   0  0  0  0  0  0  0  0  0  0  0  0
   -1.4807   -0.4279    0.3724 C   0  0  0  0  0  0  0  0  0  0  0  0
   -0.6958    0.6862   -0.2907 C   0  0  0  0  0  0  0  0  0  0  0  0
    0.7255    0.2911   -0.6435 C   0  0  0  0  0  0  0  0  0  0  0  0
    0.8442   -0.3451   -1.9864 C   0  0  0  0  0  0  0  0  0  0  0  0
    2.0929   -0.7990   -2.3652 O   0  0  0  0  0  0  0  0  0  0  0  0
   -0.1130   -0.4583   -2.7457 O   0  0  0  0  0  0  0  0  0  0  0  0
    1.8180    0.5150    0.1229 C   0  0  0  0  0  0  0  0  0  0  0  0
    1.7788    1.2040    1.4644 C   0  0  0  0  0  0  0  0  0  0  0  0
    3.1425    0.0506   -0.3486 C   0  0  0  0  0  0  0  0  0  0  0  0
    3.2403   -0.6085   -1.5742 C   0  0  0  0  0  0  0  0  0  0  0  0
    4.3271    0.2251    0.3819 C   0  0  0  0  0  0  0  0  0  0  0  0
    5.5610   -0.2382   -0.1045 C   0  0  0  0  0  0  0  0  0  0  0  0
    5.6199   -0.8719   -1.3507 C   0  0  0  0  0  0  0  0  0  0  0  0
    4.4548   -1.0973   -2.0909 C   0  0  0  0  0  0  0  0  0  0  0  0
    4.5039   -1.7752   -3.4320 C   0  0  0  0  0  0  0  0  0  0  0  0
    6.8080   -1.3318   -1.8615 O   0  0  0  0  0  0  0  0  0  0  0  0
    7.9658   -0.7753   -1.2279 C   0  0  0  0  0  0  0  0  0  0  0  0
    7.9435   -0.8451    0.2305 N   0  0  0  0  0  0  0  0  0  0  0  0
    6.8227   -0.0220    0.6923 C   0  0  0  0  0  0  0  0  0  0  0  0
    7.8598   -2.2251    0.7528 C   0  0  0  0  0  0  0  0  0  0  0  0
    8.9907   -3.1787    0.3151 C   0  0  0  0  0  0  0  0  0  0  0  0
   10.2850   -2.6799    0.7059 O   0  0  0  0  0  0  0  0  0  0  0  0
   11.0696   -3.7753    1.1968 C   0  0  0  0  0  0  0  0  0  0  0  0
   10.2969   -5.0417    0.8976 C   0  0  0  0  0  0  0  0  0  0  0  0
    8.8706   -4.5561    0.9540 C   0  0  0  0  0  0  0  0  0  0  0  0
   -0.9496    0.1251    2.4005 H   0  0  0  0  0  0  0  0  0  0  0  0
   -2.2049   -1.7118    3.4526 H   0  0  0  0  0  0  0  0  0  0  0  0
   -3.4658   -3.3278    2.0564 H   0  0  0  0  0  0  0  0  0  0  0  0
   -3.4623   -3.0945   -0.4139 H   0  0  0  0  0  0  0  0  0  0  0  0
   -2.2122   -1.2653   -1.4886 H   0  0  0  0  0  0  0  0  0  0  0  0
   -1.2379    1.0269   -1.1832 H   0  0  0  0  0  0  0  0  0  0  0  0
   -0.7180    1.5722    0.3537 H   0  0  0  0  0  0  0  0  0  0  0  0
    2.4242    2.0897    1.4610 H   0  0  0  0  0  0  0  0  0  0  0  0
    2.1119    0.5237    2.2560 H   0  0  0  0  0  0  0  0  0  0  0  0
    0.7888    1.5572    1.7545 H   0  0  0  0  0  0  0  0  0  0  0  0
    4.3194    0.7246    1.3475 H   0  0  0  0  0  0  0  0  0  0  0  0
    5.3473   -2.4693   -3.5046 H   0  0  0  0  0  0  0  0  0  0  0  0
    4.5957   -1.0261   -4.2245 H   0  0  0  0  0  0  0  0  0  0  0  0
    3.6028   -2.3718   -3.6085 H   0  0  0  0  0  0  0  0  0  0  0  0
    8.8434   -1.2911   -1.6309 H   0  0  0  0  0  0  0  0  0  0  0  0
    8.0823    0.2653   -1.5637 H   0  0  0  0  0  0  0  0  0  0  0  0
    6.6346   -0.1956    1.7593 H   0  0  0  0  0  0  0  0  0  0  0  0
    7.1031    1.0354    0.5980 H   0  0  0  0  0  0  0  0  0  0  0  0
    6.8985   -2.6900    0.5005 H   0  0  0  0  0  0  0  0  0  0  0  0
    7.9013   -2.1524    1.8478 H   0  0  0  0  0  0  0  0  0  0  0  0
    9.0019   -3.2965   -0.7746 H   0  0  0  0  0  0  0  0  0  0  0  0
   12.0557   -3.7640    0.7242 H   0  0  0  0  0  0  0  0  0  0  0  0
   11.1980   -3.6353    2.2753 H   0  0  0  0  0  0  0  0  0  0  0  0
   10.5305   -5.3929   -0.1145 H   0  0  0  0  0  0  0  0  0  0  0  0
   10.5151   -5.8509    1.5993 H   0  0  0  0  0  0  0  0  0  0  0  0
    8.1686   -5.2083    0.4270 H   0  0  0  0  0  0  0  0  0  0  0  0
    8.5502   -4.4795    2.0001 H   0  0  0  0  0  0  0  0  0  0  0  0
  1  2  2  0
  2  3  1  0
  3  4  2  0
  4  5  1  0
  5  6  2  0
  6  7  1  0
  7  8  1  0
  8  9  1  0
  9 10  1  0
  9 11  2  0
  8 12  2  0
 12 13  1  0
 12 14  1  0
 14 15  2  0
 14 16  1  0
 16 17  2  0
 17 18  1  0
 18 19  2  0
 19 20  1  0
 18 21  1  0
 21 22  1  0
 22 23  1  0
 23 24  1  0
 23 25  1  0
 25 26  1  0
 26 27  1  0
 27 28  1  0
 28 29  1  0
 29 30  1  0
  6  1  1  0
 15 10  1  0
 19 15  1  0
 24 17  1  0
 30 26  1  0
  1 31  1  0
  2 32  1  0
  3 33  1  0
  4 34  1  0
  5 35  1  0
  7 36  1  0
  7 37  1  0
 13 38  1  0
 13 39  1  0
 13 40  1  0
 16 41  1  0
 20 42  1  0
 20 43  1  0
 20 44  1  0
 22 45  1  0
 22 46  1  0
 24 47  1  0
 24 48  1  0
 25 49  1  0
 25 50  1  0
 26 51  1  0
 28 52  1  0
 28 53  1  0
 29 54  1  0
 29 55  1  0
 30 56  1  0
 30 57  1  0
M  END
>  <mol_id>  (21) 
STK597514

>  <drugclip_rank>  (21) 
21

>  <conformer>  (21) 
28

>  <align_rmsd>  (21) 
0.613

$$$$
Z90651290
     RDKit          3D

 70 72  0  0  0  0  0  0  0  0999 V2000
    6.7664   -2.0102   -2.0549 C   0  0  0  0  0  0  0  0  0  0  0  0
    5.7489   -1.1687   -1.3249 C   0  0  0  0  0  0  0  0  0  0  0  0
    6.1726   -0.4993   -0.1698 C   0  0  0  0  0  0  0  0  0  0  0  0
    5.3114    0.3154    0.5732 C   0  0  0  0  0  0  0  0  0  0  0  0
    5.8755    1.0158    1.7836 C   0  0  0  0  0  0  0  0  0  0  0  0
    3.9593    0.4442    0.1818 C   0  0  0  0  0  0  0  0  0  0  0  0
    3.0529    1.3451    0.9927 C   0  0  0  0  0  0  0  0  0  0  0  0
    3.5162   -0.2240   -1.0026 C   0  0  0  0  0  0  0  0  0  0  0  0
    4.4143   -1.0223   -1.7728 C   0  0  0  0  0  0  0  0  0  0  0  0
    3.9942   -1.7079   -3.0502 C   0  0  0  0  0  0  0  0  0  0  0  0
    1.7853   -0.0081   -1.5123 S   0  0  0  0  0  0  0  0  0  0  0  0
    1.4902    1.4092   -1.4505 O   0  0  0  0  0  0  0  0  0  0  0  0
    1.5032   -0.7352   -2.7307 O   0  0  0  0  0  0  0  0  0  0  0  0
    0.9178   -0.7945   -0.2722 N   0  0  0  0  0  0  0  0  0  0  0  0
    1.1601   -2.2397   -0.0475 C   0  0  0  0  0  0  0  0  0  0  0  0
    0.2933   -3.1154   -0.9487 C   0  0  0  0  0  0  0  0  0  0  0  0
   -1.1925   -2.7351   -0.9186 C   0  0  0  0  0  0  0  0  0  0  0  0
   -1.3733   -1.2246   -1.1122 C   0  0  0  0  0  0  0  0  0  0  0  0
   -0.5104   -0.4284   -0.1409 C   0  0  0  0  0  0  0  0  0  0  0  0
   -1.8756   -3.2110    0.3629 C   0  0  0  0  0  0  0  0  0  0  0  0
   -1.2609   -3.6162    1.3436 O   0  0  0  0  0  0  0  0  0  0  0  0
   -3.2493   -3.1341    0.3153 N   0  0  0  0  0  0  0  0  0  0  0  0
   -4.0907   -3.3592    1.4893 C   0  0  0  0  0  0  0  0  0  0  0  0
   -4.1403   -2.1056    2.3649 C   0  0  0  0  0  0  0  0  0  0  0  0
   -4.8058   -0.9293    1.6341 C   0  0  0  0  0  0  0  0  0  0  0  0
   -5.7476   -1.3519    0.5813 N   0  0  0  0  0  0  0  0  0  0  0  0
   -6.4725   -2.5601    0.9756 C   0  0  0  0  0  0  0  0  0  0  0  0
   -5.5113   -3.7556    1.0575 C   0  0  0  0  0  0  0  0  0  0  0  0
   -6.5854   -0.2342    0.1064 C   0  0  0  0  0  0  0  0  0  0  0  0
   -7.7833    0.1097    0.9989 C   0  0  0  0  0  0  0  0  0  0  0  0
   -7.0569   -0.5097   -1.3271 C   0  0  0  0  0  0  0  0  0  0  0  0
    6.4160   -3.0449   -2.1410 H   0  0  0  0  0  0  0  0  0  0  0  0
    6.9607   -1.5954   -3.0497 H   0  0  0  0  0  0  0  0  0  0  0  0
    7.7228   -2.0412   -1.5216 H   0  0  0  0  0  0  0  0  0  0  0  0
    7.2082   -0.6060    0.1537 H   0  0  0  0  0  0  0  0  0  0  0  0
    5.6608    2.0886    1.7424 H   0  0  0  0  0  0  0  0  0  0  0  0
    5.4563    0.5865    2.6994 H   0  0  0  0  0  0  0  0  0  0  0  0
    6.9650    0.9136    1.8389 H   0  0  0  0  0  0  0  0  0  0  0  0
    3.4116    1.4813    2.0171 H   0  0  0  0  0  0  0  0  0  0  0  0
    2.9928    2.3326    0.5255 H   0  0  0  0  0  0  0  0  0  0  0  0
    2.0518    0.9317    1.1148 H   0  0  0  0  0  0  0  0  0  0  0  0
    3.6486   -0.9700   -3.7801 H   0  0  0  0  0  0  0  0  0  0  0  0
    3.2252   -2.4581   -2.8445 H   0  0  0  0  0  0  0  0  0  0  0  0
    4.8073   -2.2425   -3.5472 H   0  0  0  0  0  0  0  0  0  0  0  0
    0.9639   -2.4513    1.0095 H   0  0  0  0  0  0  0  0  0  0  0  0
    2.2157   -2.4849   -0.1994 H   0  0  0  0  0  0  0  0  0  0  0  0
    0.6513   -3.0370   -1.9819 H   0  0  0  0  0  0  0  0  0  0  0  0
    0.4244   -4.1658   -0.6616 H   0  0  0  0  0  0  0  0  0  0  0  0
   -1.6902   -3.2611   -1.7443 H   0  0  0  0  0  0  0  0  0  0  0  0
   -2.4196   -0.9273   -0.9820 H   0  0  0  0  0  0  0  0  0  0  0  0
   -1.1072   -0.9639   -2.1434 H   0  0  0  0  0  0  0  0  0  0  0  0
   -0.6503    0.6451   -0.3034 H   0  0  0  0  0  0  0  0  0  0  0  0
   -0.8221   -0.6127    0.8945 H   0  0  0  0  0  0  0  0  0  0  0  0
   -3.6913   -2.6280   -0.4434 H   0  0  0  0  0  0  0  0  0  0  0  0
   -3.6441   -4.1833    2.0580 H   0  0  0  0  0  0  0  0  0  0  0  0
   -3.1348   -1.8110    2.6891 H   0  0  0  0  0  0  0  0  0  0  0  0
   -4.7117   -2.3350    3.2740 H   0  0  0  0  0  0  0  0  0  0  0  0
   -5.2913   -0.2966    2.3864 H   0  0  0  0  0  0  0  0  0  0  0  0
   -4.0232   -0.3195    1.1658 H   0  0  0  0  0  0  0  0  0  0  0  0
   -6.9702   -2.4182    1.9440 H   0  0  0  0  0  0  0  0  0  0  0  0
   -7.2571   -2.8177    0.2554 H   0  0  0  0  0  0  0  0  0  0  0  0
   -5.4809   -4.2772    0.0919 H   0  0  0  0  0  0  0  0  0  0  0  0
   -5.9227   -4.4676    1.7851 H   0  0  0  0  0  0  0  0  0  0  0  0
   -5.9517    0.6612    0.0423 H   0  0  0  0  0  0  0  0  0  0  0  0
   -8.2890    1.0066    0.6239 H   0  0  0  0  0  0  0  0  0  0  0  0
   -8.5231   -0.6972    1.0206 H   0  0  0  0  0  0  0  0  0  0  0  0
   -7.4735    0.3174    2.0275 H   0  0  0  0  0  0  0  0  0  0  0  0
   -7.7640   -1.3435   -1.3786 H   0  0  0  0  0  0  0  0  0  0  0  0
   -7.5573    0.3734   -1.7405 H   0  0  0  0  0  0  0  0  0  0  0  0
   -6.2078   -0.7409   -1.9804 H   0  0  0  0  0  0  0  0  0  0  0  0
  1  2  1  0
  2  3  2  0
  3  4  1  0
  4  5  1  0
  4  6  2  0
  6  7  1  0
  6  8  1  0
  8  9  2  0
  9 10  1  0
  8 11  1  0
 11 12  2  0
 11 13  2  0
 11 14  1  0
 14 15  1  0
 15 16  1  0
 16 17  1  0
 17 18  1  0
 18 19  1  0
 17 20  1  0
 20 21  2  0
 20 22  1  0
 22 23  1  0
 23 24  1  0
 24 25  1  0
 25 26  1  0
 26 27  1  0
 27 28  1  0
 26 29  1  0
 29 30  1  0
 29 31  1  0
  9  2  1  0
 19 14  1  0
 28 23  1  0
  1 32  1  0
  1 33  1  0
  1 34  1  0
  3 35  1  0
  5 36  1  0
  5 37  1  0
  5 38  1  0
  7 39  1  0
  7 40  1  0
  7 41  1  0
 10 42  1  0
 10 43  1  0
 10 44  1  0
 15 45  1  0
 15 46  1  0
 16 47  1  0
 16 48  1  0
 17 49  1  0
 18 50  1  0
 18 51  1  0
 19 52  1  0
 19 53  1  0
 22 54  1  0
 23 55  1  0
 24 56  1  0
 24 57  1  0
 25 58  1  0
 25 59  1  0
 27 60  1  0
 27 61  1  0
 28 62  1  0
 28 63  1  0
 29 64  1  0
 30 65  1  0
 30 66  1  0
 30 67  1  0
 31 68  1  0
 31 69  1  0
 31 70  1  0
M  END
>  <mol_id>  (22) 
Z90651290

>  <drugclip_rank>  (22) 
22

>  <conformer>  (22) 
7

>  <align_rmsd>  (22) 
0.319

$$$$
S420-0610
     RDKit          3D

 67 71  0  0  0  0  0  0  0  0999 V2000
   -0.6292   -1.0663   -0.7395 C   0  0  0  0  0  0  0  0  0  0  0  0
   -0.8562   -2.5032   -0.2494 C   0  0  0  0  0  0  0  0  0  0  0  0
   -0.4809   -2.6538    1.2309 C   0  0  0  0  0  0  0  0  0  0  0  0
    0.9320   -2.1224    1.5039 C   0  0  0  0  0  0  0  0  0  0  0  0
    1.0609   -0.6846    0.9830 C   0  0  0  0  0  0  0  0  0  0  0  0
    0.7284   -0.6353   -0.4233 N   0  0  0  0  0  0  0  0  0  0  0  0
    2.3811   -0.1423    1.2726 N   0  0  0  0  0  0  0  0  0  0  0  0
    2.5467    0.5992    2.5229 C   0  0  0  0  0  0  0  0  0  0  0  0
    2.5159    2.0958    2.2651 C   0  0  0  0  0  0  0  0  0  0  0  0
    3.3938   -0.2501    0.3326 C   0  0  0  0  0  0  0  0  0  0  0  0
    3.1017   -0.5618   -1.0061 C   0  0  0  0  0  0  0  0  0  0  0  0
    1.6942   -0.7475   -1.4133 C   0  0  0  0  0  0  0  0  0  0  0  0
    1.4293   -0.9635   -2.5980 O   0  0  0  0  0  0  0  0  0  0  0  0
    4.1062   -0.6591   -1.9889 C   0  0  0  0  0  0  0  0  0  0  0  0
    5.4375   -0.4503   -1.6475 C   0  0  0  0  0  0  0  0  0  0  0  0
    5.7560   -0.1388   -0.3244 C   0  0  0  0  0  0  0  0  0  0  0  0
    4.7489   -0.0522    0.6519 C   0  0  0  0  0  0  0  0  0  0  0  0
    7.1826    0.0108    0.0379 C   0  0  0  0  0  0  0  0  0  0  0  0
    7.9371   -0.9059   -0.2653 O   0  0  0  0  0  0  0  0  0  0  0  0
    7.6069    1.1694    0.6764 N   0  0  0  0  0  0  0  0  0  0  0  0
    9.0274    1.3013    0.9689 C   0  0  0  0  0  0  0  0  0  0  0  0
    9.3231    2.2388    2.1537 C   0  0  0  0  0  0  0  0  0  0  0  0
    8.4816    3.4578    2.2760 N   0  0  0  0  0  0  0  0  0  0  0  0
    7.6741    3.6576    1.0627 C   0  0  0  0  0  0  0  0  0  0  0  0
    6.8226    2.4072    0.7449 C   0  0  0  0  0  0  0  0  0  0  0  0
    9.2566    4.6329    2.7389 C   0  0  0  0  0  0  0  0  0  0  0  0
    8.4057    5.9247    2.7888 C   0  0  0  0  0  0  0  0  0  0  0  0
    8.9947    7.0425    3.6557 C   0  0  0  0  0  0  0  0  0  0  0  0
   10.4802    6.8560    3.9152 C   0  0  0  0  0  0  0  0  0  0  0  0
   10.7474    5.5324    4.6250 C   0  0  0  0  0  0  0  0  0  0  0  0
    9.8613    4.3838    4.1375 C   0  0  0  0  0  0  0  0  0  0  0  0
   -1.3299   -0.3732   -0.2486 H   0  0  0  0  0  0  0  0  0  0  0  0
   -0.8188   -1.0083   -1.8189 H   0  0  0  0  0  0  0  0  0  0  0  0
   -0.2404   -3.1917   -0.8464 H   0  0  0  0  0  0  0  0  0  0  0  0
   -1.9037   -2.7885   -0.3970 H   0  0  0  0  0  0  0  0  0  0  0  0
   -0.5551   -3.7073    1.5309 H   0  0  0  0  0  0  0  0  0  0  0  0
   -1.2036   -2.0924    1.8421 H   0  0  0  0  0  0  0  0  0  0  0  0
    1.1412   -2.1588    2.5791 H   0  0  0  0  0  0  0  0  0  0  0  0
    1.6632   -2.7785    1.0129 H   0  0  0  0  0  0  0  0  0  0  0  0
    0.3054   -0.0612    1.4819 H   0  0  0  0  0  0  0  0  0  0  0  0
    1.7294    0.3605    3.2135 H   0  0  0  0  0  0  0  0  0  0  0  0
    3.4557    0.3094    3.0507 H   0  0  0  0  0  0  0  0  0  0  0  0
    1.5476    2.3911    1.8428 H   0  0  0  0  0  0  0  0  0  0  0  0
    3.2943    2.4150    1.5623 H   0  0  0  0  0  0  0  0  0  0  0  0
    2.6538    2.6505    3.1964 H   0  0  0  0  0  0  0  0  0  0  0  0
    3.8391   -0.8956   -3.0181 H   0  0  0  0  0  0  0  0  0  0  0  0
    6.2256   -0.5320   -2.3966 H   0  0  0  0  0  0  0  0  0  0  0  0
    5.0545    0.1372    1.6767 H   0  0  0  0  0  0  0  0  0  0  0  0
    9.4995    1.6893    0.0585 H   0  0  0  0  0  0  0  0  0  0  0  0
    9.4671    0.3149    1.1669 H   0  0  0  0  0  0  0  0  0  0  0  0
   10.3857    2.5014    2.0829 H   0  0  0  0  0  0  0  0  0  0  0  0
    9.1949    1.6674    3.0803 H   0  0  0  0  0  0  0  0  0  0  0  0
    8.3216    3.8962    0.2039 H   0  0  0  0  0  0  0  0  0  0  0  0
    6.9734    4.4915    1.1874 H   0  0  0  0  0  0  0  0  0  0  0  0
    6.0737    2.2761    1.5350 H   0  0  0  0  0  0  0  0  0  0  0  0
    6.2929    2.5486   -0.2045 H   0  0  0  0  0  0  0  0  0  0  0  0
   10.0851    4.8017    2.0355 H   0  0  0  0  0  0  0  0  0  0  0  0
    7.4006    5.7020    3.1670 H   0  0  0  0  0  0  0  0  0  0  0  0
    8.2764    6.3096    1.7691 H   0  0  0  0  0  0  0  0  0  0  0  0
    8.8212    8.0097    3.1751 H   0  0  0  0  0  0  0  0  0  0  0  0
    8.4600    7.0659    4.6133 H   0  0  0  0  0  0  0  0  0  0  0  0
   11.0261    6.8756    2.9612 H   0  0  0  0  0  0  0  0  0  0  0  0
   10.8725    7.6879    4.5144 H   0  0  0  0  0  0  0  0  0  0  0  0
   10.5916    5.6519    5.7024 H   0  0  0  0  0  0  0  0  0  0  0  0
   11.8033    5.2721    4.4965 H   0  0  0  0  0  0  0  0  0  0  0  0
    9.0480    4.2397    4.8580 H   0  0  0  0  0  0  0  0  0  0  0  0
   10.4541    3.4654    4.1672 H   0  0  0  0  0  0  0  0  0  0  0  0
  1  2  1  0
  2  3  1  0
  3  4  1  0
  4  5  1  0
  5  6  1  0
  5  7  1  0
  7  8  1  0
  8  9  1  0
  7 10  1  0
 10 11  2  0
 11 12  1  0
 12 13  2  0
 11 14  1  0
 14 15  2  0
 15 16  1  0
 16 17  2  0
 16 18  1  0
 18 19  2  0
 18 20  1  0
 20 21  1  0
 21 22  1  0
 22 23  1  0
 23 24  1  0
 24 25  1  0
 23 26  1  0
 26 27  1  0
 27 28  1  0
 28 29  1  0
 29 30  1  0
 30 31  1  0
  6  1  1  0
 12  6  1  0
 17 10  1  0
 25 20  1  0
 31 26  1  0
  1 32  1  0
  1 33  1  0
  2 34  1  0
  2 35  1  0
  3 36  1  0
  3 37  1  0
  4 38  1  0
  4 39  1  0
  5 40  1  0
  8 41  1  0
  8 42  1  0
  9 43  1  0
  9 44  1  0
  9 45  1  0
 14 46  1  0
 15 47  1  0
 17 48  1  0
 21 49  1  0
 21 50  1  0
 22 51  1  0
 22 52  1  0
 24 53  1  0
 24 54  1  0
 25 55  1  0
 25 56  1  0
 26 57  1  0
 27 58  1  0
 27 59  1  0
 28 60  1  0
 28 61  1  0
 29 62  1  0
 29 63  1  0
 30 64  1  0
 30 65  1  0
 31 66  1  0
 31 67  1  0
M  END
>  <mol_id>  (23) 
S420-0610

>  <drugclip_rank>  (23) 
23

>  <conformer>  (23) 
5

>  <align_rmsd>  (23) 
0.367

$$$$
OSSM_165332
     RDKit          3D

 53 56  0  0  0  0  0  0  0  0999 V2000
   -6.4682    0.0101    1.0860 C   0  0  0  0  0  0  0  0  0  0  0  0
   -7.3884    1.0022    0.7408 C   0  0  0  0  0  0  0  0  0  0  0  0
   -8.1851    0.8533   -0.3919 C   0  0  0  0  0  0  0  0  0  0  0  0
   -8.0642   -0.2889   -1.1790 C   0  0  0  0  0  0  0  0  0  0  0  0
   -7.1455   -1.2822   -0.8349 C   0  0  0  0  0  0  0  0  0  0  0  0
   -6.3356   -1.1455    0.3023 C   0  0  0  0  0  0  0  0  0  0  0  0
   -5.3233   -2.2159    0.6575 C   0  0  0  0  0  0  0  0  0  0  0  0
   -3.9610   -1.9823    0.0330 C   0  0  0  0  0  0  0  0  0  0  0  0
   -3.8360   -2.5531   -1.3386 C   0  0  0  0  0  0  0  0  0  0  0  0
   -2.6525   -2.3258   -2.0147 O   0  0  0  0  0  0  0  0  0  0  0  0
   -4.7303   -3.2127   -1.8582 O   0  0  0  0  0  0  0  0  0  0  0  0
   -2.9144   -1.3685    0.6332 C   0  0  0  0  0  0  0  0  0  0  0  0
   -2.9513   -0.8204    2.0383 C   0  0  0  0  0  0  0  0  0  0  0  0
   -1.6499   -1.1933   -0.1167 C   0  0  0  0  0  0  0  0  0  0  0  0
   -1.5555   -1.6737   -1.4225 C   0  0  0  0  0  0  0  0  0  0  0  0
   -0.5229   -0.5452    0.4099 C   0  0  0  0  0  0  0  0  0  0  0  0
    0.6506   -0.3840   -0.3470 C   0  0  0  0  0  0  0  0  0  0  0  0
    0.6977   -0.8610   -1.6590 C   0  0  0  0  0  0  0  0  0  0  0  0
   -0.3953   -1.5416   -2.2081 C   0  0  0  0  0  0  0  0  0  0  0  0
   -0.3594   -2.0543   -3.6218 C   0  0  0  0  0  0  0  0  0  0  0  0
    1.8130   -0.7066   -2.4384 O   0  0  0  0  0  0  0  0  0  0  0  0
    2.7872    0.2117   -1.9262 C   0  0  0  0  0  0  0  0  0  0  0  0
    3.0669    0.0327   -0.5006 N   0  0  0  0  0  0  0  0  0  0  0  0
    1.8342    0.3431    0.2304 C   0  0  0  0  0  0  0  0  0  0  0  0
    4.1652    0.8884   -0.0346 C   0  0  0  0  0  0  0  0  0  0  0  0
    5.5495    0.4233   -0.4981 C   0  0  0  0  0  0  0  0  0  0  0  0
    5.8898   -0.9860   -0.0297 C   0  0  0  0  0  0  0  0  0  0  0  0
    7.2205   -1.3063   -0.4229 O   0  0  0  0  0  0  0  0  0  0  0  0
   -5.8590    0.1504    1.9742 H   0  0  0  0  0  0  0  0  0  0  0  0
   -7.4826    1.8933    1.3562 H   0  0  0  0  0  0  0  0  0  0  0  0
   -8.8998    1.6263   -0.6610 H   0  0  0  0  0  0  0  0  0  0  0  0
   -8.6833   -0.4096   -2.0646 H   0  0  0  0  0  0  0  0  0  0  0  0
   -7.0646   -2.1658   -1.4663 H   0  0  0  0  0  0  0  0  0  0  0  0
   -5.2582   -2.2958    1.7485 H   0  0  0  0  0  0  0  0  0  0  0  0
   -5.7187   -3.1995    0.3699 H   0  0  0  0  0  0  0  0  0  0  0  0
   -3.8892   -1.0039    2.5636 H   0  0  0  0  0  0  0  0  0  0  0  0
   -2.1684   -1.2808    2.6516 H   0  0  0  0  0  0  0  0  0  0  0  0
   -2.8056    0.2654    2.0311 H   0  0  0  0  0  0  0  0  0  0  0  0
   -0.5319   -0.1447    1.4203 H   0  0  0  0  0  0  0  0  0  0  0  0
   -0.7527   -1.2935   -4.3027 H   0  0  0  0  0  0  0  0  0  0  0  0
   -0.9520   -2.9685   -3.7299 H   0  0  0  0  0  0  0  0  0  0  0  0
    0.6579   -2.3132   -3.9325 H   0  0  0  0  0  0  0  0  0  0  0  0
    3.6898    0.0204   -2.5147 H   0  0  0  0  0  0  0  0  0  0  0  0
    2.4652    1.2355   -2.1642 H   0  0  0  0  0  0  0  0  0  0  0  0
    1.6180    1.4201    0.2098 H   0  0  0  0  0  0  0  0  0  0  0  0
    1.9587    0.0406    1.2776 H   0  0  0  0  0  0  0  0  0  0  0  0
    4.0081    1.9295   -0.3461 H   0  0  0  0  0  0  0  0  0  0  0  0
    4.1790    0.8920    1.0636 H   0  0  0  0  0  0  0  0  0  0  0  0
    5.6464    0.4846   -1.5883 H   0  0  0  0  0  0  0  0  0  0  0  0
    6.3044    1.1181   -0.1078 H   0  0  0  0  0  0  0  0  0  0  0  0
    5.8374   -1.0565    1.0610 H   0  0  0  0  0  0  0  0  0  0  0  0
    5.2154   -1.7350   -0.4565 H   0  0  0  0  0  0  0  0  0  0  0  0
    7.2231   -1.3804   -1.3929 H   0  0  0  0  0  0  0  0  0  0  0  0
  1  2  2  0
  2  3  1  0
  3  4  2  0
  4  5  1  0
  5  6  2  0
  6  7  1  0
  7  8  1  0
  8  9  1  0
  9 10  1  0
  9 11  2  0
  8 12  2  0
 12 13  1  0
 12 14  1  0
 14 15  2  0
 14 16  1  0
 16 17  2  0
 17 18  1  0
 18 19  2  0
 19 20  1  0
 18 21  1  0
 21 22  1  0
 22 23  1  0
 23 24  1  0
 23 25  1  0
 25 26  1  0
 26 27  1  0
 27 28  1  0
  6  1  1  0
 15 10  1  0
 19 15  1  0
 24 17  1  0
  1 29  1  0
  2 30  1  0
  3 31  1  0
  4 32  1  0
  5 33  1  0
  7 34  1  0
  7 35  1  0
 13 36  1  0
 13 37  1  0
 13 38  1  0
 16 39  1  0
 20 40  1  0
 20 41  1  0
 20 42  1  0
 22 43  1  0
 22 44  1  0
 24 45  1  0
 24 46  1  0
 25 47  1  0
 25 48  1  0
 26 49  1  0
 26 50  1  0
 27 51  1  0
 27 52  1  0
 28 53  1  0
M  END
>  <mol_id>  (24) 
OSSM_165332

>  <drugclip_rank>  (24) 
24

>  <conformer>  (24) 
12

>  <align_rmsd>  (24) 
0.364

$$$$
MCULE-2169066108
     RDKit          3D

 62 64  0  0  0  0  0  0  0  0999 V2000
    5.6715   -0.9369   -1.5897 C   0  0  0  0  0  0  0  0  0  0  0  0
    6.1485   -2.1905   -1.6438 F   0  0  0  0  0  0  0  0  0  0  0  0
    6.3483    0.0385   -0.8517 C   0  0  0  0  0  0  0  0  0  0  0  0
    5.8268    1.3334   -0.8211 C   0  0  0  0  0  0  0  0  0  0  0  0
    4.6495    1.6383   -1.5180 C   0  0  0  0  0  0  0  0  0  0  0  0
    3.9672    0.6530   -2.2475 C   0  0  0  0  0  0  0  0  0  0  0  0
    4.5017   -0.6405   -2.2869 C   0  0  0  0  0  0  0  0  0  0  0  0
    2.7156    1.0093   -3.0184 C   0  0  0  0  0  0  0  0  0  0  0  0
    1.7779   -0.0619   -3.1039 O   0  0  0  0  0  0  0  0  0  0  0  0
    0.9672   -0.3463   -2.0279 C   0  0  0  0  0  0  0  0  0  0  0  0
    0.9597    0.2497   -0.8221 C   0  0  0  0  0  0  0  0  0  0  0  0
    0.1316   -0.0716    0.2572 N   0  0  0  0  0  0  0  0  0  0  0  0
   -0.7941   -1.1278    0.1017 C   0  0  0  0  0  0  0  0  0  0  0  0
   -0.8807   -1.8110   -1.0561 C   0  0  0  0  0  0  0  0  0  0  0  0
   -0.0155   -1.4612   -2.2040 C   0  0  0  0  0  0  0  0  0  0  0  0
   -0.1213   -2.0873   -3.2559 O   0  0  0  0  0  0  0  0  0  0  0  0
   -1.7075   -1.5582    1.2515 C   0  0  0  0  0  0  0  0  0  0  0  0
   -2.7361   -0.5719    1.6331 N   0  0  0  0  0  0  0  0  0  0  0  0
   -3.4371   -0.9779    2.8594 C   0  0  0  0  0  0  0  0  0  0  0  0
   -4.8630   -1.4692    2.6187 C   0  0  0  0  0  0  0  0  0  0  0  0
   -5.7361   -0.3483    2.0120 C   0  0  0  0  0  0  0  0  0  0  0  0
   -4.9071    0.4549    0.9793 C   0  0  0  0  0  0  0  0  0  0  0  0
   -3.6537   -0.2886    0.5184 C   0  0  0  0  0  0  0  0  0  0  0  0
   -7.0195   -0.8399    1.4385 N   0  0  0  0  0  0  0  0  0  0  0  0
   -7.6965   -1.8211    2.2952 C   0  0  0  0  0  0  0  0  0  0  0  0
   -7.9521    0.2720    1.1926 C   0  0  0  0  0  0  0  0  0  0  0  0
    0.3170    0.6477    1.5353 C   0  0  0  0  0  0  0  0  0  0  0  0
    1.4223    0.0026    2.3599 C   0  0  0  0  0  0  0  0  0  0  0  0
    7.4853   -0.3778   -0.2138 O   0  0  0  0  0  0  0  0  0  0  0  0
    8.2404    0.6067    0.4785 C   0  0  0  0  0  0  0  0  0  0  0  0
    6.3114    2.1307   -0.2670 H   0  0  0  0  0  0  0  0  0  0  0  0
    4.2697    2.6584   -1.4852 H   0  0  0  0  0  0  0  0  0  0  0  0
    4.0164   -1.4317   -2.8536 H   0  0  0  0  0  0  0  0  0  0  0  0
    3.0193    1.2467   -4.0449 H   0  0  0  0  0  0  0  0  0  0  0  0
    2.2312    1.9112   -2.6243 H   0  0  0  0  0  0  0  0  0  0  0  0
    1.6433    1.0576   -0.5893 H   0  0  0  0  0  0  0  0  0  0  0  0
   -1.5708   -2.6287   -1.2179 H   0  0  0  0  0  0  0  0  0  0  0  0
   -1.0592   -1.7631    2.1133 H   0  0  0  0  0  0  0  0  0  0  0  0
   -2.1909   -2.5178    1.0189 H   0  0  0  0  0  0  0  0  0  0  0  0
   -2.8795   -1.7423    3.4149 H   0  0  0  0  0  0  0  0  0  0  0  0
   -3.4736   -0.1049    3.5236 H   0  0  0  0  0  0  0  0  0  0  0  0
   -5.2881   -1.7986    3.5747 H   0  0  0  0  0  0  0  0  0  0  0  0
   -4.8366   -2.3483    1.9612 H   0  0  0  0  0  0  0  0  0  0  0  0
   -5.9811    0.3379    2.8364 H   0  0  0  0  0  0  0  0  0  0  0  0
   -5.4901    0.7138    0.0894 H   0  0  0  0  0  0  0  0  0  0  0  0
   -4.6160    1.4140    1.4292 H   0  0  0  0  0  0  0  0  0  0  0  0
   -3.1406    0.3363   -0.2222 H   0  0  0  0  0  0  0  0  0  0  0  0
   -3.9584   -1.2116    0.0068 H   0  0  0  0  0  0  0  0  0  0  0  0
   -7.8754   -1.4318    3.3040 H   0  0  0  0  0  0  0  0  0  0  0  0
   -7.1222   -2.7500    2.3702 H   0  0  0  0  0  0  0  0  0  0  0  0
   -8.6625   -2.1110    1.8644 H   0  0  0  0  0  0  0  0  0  0  0  0
   -8.2240    0.7895    2.1201 H   0  0  0  0  0  0  0  0  0  0  0  0
   -8.8725   -0.0985    0.7260 H   0  0  0  0  0  0  0  0  0  0  0  0
   -7.5427    1.0108    0.4981 H   0  0  0  0  0  0  0  0  0  0  0  0
    0.5816    1.6944    1.3360 H   0  0  0  0  0  0  0  0  0  0  0  0
   -0.6026    0.6934    2.1230 H   0  0  0  0  0  0  0  0  0  0  0  0
    2.3780    0.0220    1.8253 H   0  0  0  0  0  0  0  0  0  0  0  0
    1.1908   -1.0418    2.5909 H   0  0  0  0  0  0  0  0  0  0  0  0
    1.5520    0.5398    3.3047 H   0  0  0  0  0  0  0  0  0  0  0  0
    7.6687    1.0269    1.3126 H   0  0  0  0  0  0  0  0  0  0  0  0
    8.5838    1.3933   -0.2020 H   0  0  0  0  0  0  0  0  0  0  0  0
    9.1262    0.1173    0.8953 H   0  0  0  0  0  0  0  0  0  0  0  0
  1  2  1  0
  1  3  2  0
  3  4  1  0
  4  5  2  0
  5  6  1  0
  6  7  2  0
  6  8  1  0
  8  9  1  0
  9 10  1  0
 10 11  2  0
 11 12  1  0
 12 13  1  0
 13 14  2  0
 14 15  1  0
 15 16  2  0
 13 17  1  0
 17 18  1  0
 18 19  1  0
 19 20  1  0
 20 21  1  0
 21 22  1  0
 22 23  1  0
 21 24  1  0
 24 25  1  0
 24 26  1  0
 12 27  1  0
 27 28  1  0
  3 29  1  0
 29 30  1  0
  7  1  1  0
 15 10  1  0
 23 18  1  0
  4 31  1  0
  5 32  1  0
  7 33  1  0
  8 34  1  0
  8 35  1  0
 11 36  1  0
 14 37  1  0
 17 38  1  0
 17 39  1  0
 19 40  1  0
 19 41  1  0
 20 42  1  0
 20 43  1  0
 21 44  1  0
 22 45  1  0
 22 46  1  0
 23 47  1  0
 23 48  1  0
 25 49  1  0
 25 50  1  0
 25 51  1  0
 26 52  1  0
 26 53  1  0
 26 54  1  0
 27 55  1  0
 27 56  1  0
 28 57  1  0
 28 58  1  0
 28 59  1  0
 30 60  1  0
 30 61  1  0
 30 62  1  0
M  END
>  <mol_id>  (25) 
MCULE-2169066108

>  <drugclip_rank>  (25) 
25

>  <conformer>  (25) 
32

>  <align_rmsd>  (25) 
1.236

$$$$
Z1535677966
     RDKit          3D

 61 64  0  0  0  0  0  0  0  0999 V2000
   -8.2427    0.9612    0.5643 C   0  0  0  0  0  0  0  0  0  0  0  0
   -7.2340   -0.1916    0.4779 C   0  0  0  0  0  0  0  0  0  0  0  0
   -7.3990   -0.9295   -0.8564 C   0  0  0  0  0  0  0  0  0  0  0  0
   -5.8759    0.2953    0.7806 N   0  0  0  0  0  0  0  0  0  0  0  0
   -5.2601    1.1241   -0.2684 C   0  0  0  0  0  0  0  0  0  0  0  0
   -3.8787    1.6674    0.1709 C   0  0  0  0  0  0  0  0  0  0  0  0
   -2.9155    0.5940    0.5296 N   0  0  0  0  0  0  0  0  0  0  0  0
   -3.5532   -0.2709    1.5490 C   0  0  0  0  0  0  0  0  0  0  0  0
   -4.9480   -0.7953    1.1266 C   0  0  0  0  0  0  0  0  0  0  0  0
   -1.6183    1.1642    0.9828 C   0  0  0  0  0  0  0  0  0  0  0  0
   -0.9459    1.9493   -0.1734 C   0  0  0  0  0  0  0  0  0  0  0  0
    0.5793    1.8778   -0.1781 C   0  0  0  0  0  0  0  0  0  0  0  0
    1.1208    1.8821    1.1729 N   0  0  0  0  0  0  0  0  0  0  0  0
    0.6417    0.8163    2.0454 C   0  0  0  0  0  0  0  0  0  0  0  0
   -0.6249    0.1270    1.5375 C   0  0  0  0  0  0  0  0  0  0  0  0
    2.2046    2.6210    1.6244 C   0  0  0  0  0  0  0  0  0  0  0  0
    2.7041    2.4100    2.7333 O   0  0  0  0  0  0  0  0  0  0  0  0
    2.7871    3.7140    0.7522 C   0  0  0  0  0  0  0  0  0  0  0  0
    4.0093    3.2174   -0.0200 C   0  0  0  0  0  0  0  0  0  0  0  0
    3.6126    2.2449   -0.9796 O   0  0  0  0  0  0  0  0  0  0  0  0
    5.1643    2.9433    0.9571 C   0  0  0  0  0  0  0  0  0  0  0  0
    5.6799    3.8181    1.6495 O   0  0  0  0  0  0  0  0  0  0  0  0
    5.5935    1.6499    1.0104 N   0  0  0  0  0  0  0  0  0  0  0  0
    5.0926    0.6714    0.1563 C   0  0  0  0  0  0  0  0  0  0  0  0
    4.1396    0.9962   -0.8094 C   0  0  0  0  0  0  0  0  0  0  0  0
    5.5763   -0.6338    0.2579 C   0  0  0  0  0  0  0  0  0  0  0  0
    5.1066   -1.6166   -0.6141 C   0  0  0  0  0  0  0  0  0  0  0  0
    4.1596   -1.2936   -1.5855 C   0  0  0  0  0  0  0  0  0  0  0  0
    3.6787    0.0113   -1.6833 C   0  0  0  0  0  0  0  0  0  0  0  0
   -8.1216    1.6793   -0.2532 H   0  0  0  0  0  0  0  0  0  0  0  0
   -8.1436    1.5004    1.5132 H   0  0  0  0  0  0  0  0  0  0  0  0
   -9.2675    0.5756    0.5135 H   0  0  0  0  0  0  0  0  0  0  0  0
   -7.5193   -0.8917    1.2746 H   0  0  0  0  0  0  0  0  0  0  0  0
   -6.7125   -1.7774   -0.9378 H   0  0  0  0  0  0  0  0  0  0  0  0
   -7.2337   -0.2690   -1.7139 H   0  0  0  0  0  0  0  0  0  0  0  0
   -8.4165   -1.3282   -0.9441 H   0  0  0  0  0  0  0  0  0  0  0  0
   -5.1313    0.5561   -1.1987 H   0  0  0  0  0  0  0  0  0  0  0  0
   -5.8954    1.9868   -0.4951 H   0  0  0  0  0  0  0  0  0  0  0  0
   -4.0192    2.3512    1.0196 H   0  0  0  0  0  0  0  0  0  0  0  0
   -3.4906    2.2614   -0.6640 H   0  0  0  0  0  0  0  0  0  0  0  0
   -2.9352   -1.1573    1.7256 H   0  0  0  0  0  0  0  0  0  0  0  0
   -3.6462    0.2685    2.5009 H   0  0  0  0  0  0  0  0  0  0  0  0
   -4.8212   -1.4852    0.2830 H   0  0  0  0  0  0  0  0  0  0  0  0
   -5.3548   -1.3748    1.9642 H   0  0  0  0  0  0  0  0  0  0  0  0
   -1.8211    1.8742    1.7980 H   0  0  0  0  0  0  0  0  0  0  0  0
   -1.2550    3.0004   -0.1029 H   0  0  0  0  0  0  0  0  0  0  0  0
   -1.2918    1.5916   -1.1519 H   0  0  0  0  0  0  0  0  0  0  0  0
    0.9747    2.6835   -0.7964 H   0  0  0  0  0  0  0  0  0  0  0  0
    0.9053    0.9432   -0.6495 H   0  0  0  0  0  0  0  0  0  0  0  0
    0.4544    1.2501    3.0353 H   0  0  0  0  0  0  0  0  0  0  0  0
    1.4444    0.0786    2.1629 H   0  0  0  0  0  0  0  0  0  0  0  0
   -1.0431   -0.4379    2.3763 H   0  0  0  0  0  0  0  0  0  0  0  0
   -0.3710   -0.6000    0.7564 H   0  0  0  0  0  0  0  0  0  0  0  0
    3.0642    4.5393    1.4201 H   0  0  0  0  0  0  0  0  0  0  0  0
    2.0311    4.1264    0.0814 H   0  0  0  0  0  0  0  0  0  0  0  0
    4.3714    4.0611   -0.6231 H   0  0  0  0  0  0  0  0  0  0  0  0
    6.3144    1.4375    1.6862 H   0  0  0  0  0  0  0  0  0  0  0  0
    6.3180   -0.8980    1.0073 H   0  0  0  0  0  0  0  0  0  0  0  0
    5.4822   -2.6349   -0.5382 H   0  0  0  0  0  0  0  0  0  0  0  0
    3.7960   -2.0584   -2.2673 H   0  0  0  0  0  0  0  0  0  0  0  0
    2.9427    0.2591   -2.4421 H   0  0  0  0  0  0  0  0  0  0  0  0
  1  2  1  0
  2  3  1  0
  2  4  1  0
  4  5  1  0
  5  6  1  0
  6  7  1  0
  7  8  1  0
  8  9  1  0
  7 10  1  0
 10 11  1  0
 11 12  1  0
 12 13  1  0
 13 14  1  0
 14 15  1  0
 13 16  1  0
 16 17  2  0
 16 18  1  0
 18 19  1  0
 19 20  1  0
 19 21  1  0
 21 22  2  0
 21 23  1  0
 23 24  1  0
 24 25  2  0
 24 26  1  0
 26 27  2  0
 27 28  1  0
 28 29  2  0
  9  4  1  0
 15 10  1  0
 25 20  1  0
 29 25  1  0
  1 30  1  0
  1 31  1  0
  1 32  1  0
  2 33  1  0
  3 34  1  0
  3 35  1  0
  3 36  1  0
  5 37  1  0
  5 38  1  0
  6 39  1  0
  6 40  1  0
  8 41  1  0
  8 42  1  0
  9 43  1  0
  9 44  1  0
 10 45  1  0
 11 46  1  0
 11 47  1  0
 12 48  1  0
 12 49  1  0
 14 50  1  0
 14 51  1  0
 15 52  1  0
 15 53  1  0
 18 54  1  0
 18 55  1  0
 19 56  1  0
 23 57  1  0
 26 58  1  0
 27 59  1  0
 28 60  1  0
 29 61  1  0
M  END
>  <mol_id>  (26) 
Z1535677966

>  <drugclip_rank>  (26) 
26

>  <conformer>  (26) 
12

>  <align_rmsd>  (26) 
0.515

$$$$
Z999693592
     RDKit          3D

 60 62  0  0  0  0  0  0  0  0999 V2000
    9.3871   -0.9299    1.3672 C   0  0  0  0  0  0  0  0  0  0  0  0
    7.9640   -0.4284    1.1913 C   0  0  0  0  0  0  0  0  0  0  0  0
    7.4632   -0.9477   -0.0389 O   0  0  0  0  0  0  0  0  0  0  0  0
    6.1599   -0.6716   -0.3480 C   0  0  0  0  0  0  0  0  0  0  0  0
    5.7158   -1.2248   -1.5495 C   0  0  0  0  0  0  0  0  0  0  0  0
    4.4033   -1.0303   -1.9819 C   0  0  0  0  0  0  0  0  0  0  0  0
    5.2782    0.0939    0.4162 C   0  0  0  0  0  0  0  0  0  0  0  0
    3.9480    0.2898   -0.0004 C   0  0  0  0  0  0  0  0  0  0  0  0
    3.5118   -0.2868   -1.2034 C   0  0  0  0  0  0  0  0  0  0  0  0
    3.0292    1.1392    0.8473 C   0  0  0  0  0  0  0  0  0  0  0  0
    1.6200    1.1387    0.4587 N   0  0  0  0  0  0  0  0  0  0  0  0
    1.1627    0.1018   -0.4680 C   0  0  0  0  0  0  0  0  0  0  0  0
    2.1004   -0.0540   -1.6631 C   0  0  0  0  0  0  0  0  0  0  0  0
    0.7817    1.9657    1.2060 C   0  0  0  0  0  0  0  0  0  0  0  0
    1.1973    2.8191    1.9869 O   0  0  0  0  0  0  0  0  0  0  0  0
   -0.6814    1.8223    1.0689 C   0  0  0  0  0  0  0  0  0  0  0  0
   -1.3191    0.6496    1.4836 C   0  0  0  0  0  0  0  0  0  0  0  0
   -2.7044    0.5397    1.3606 C   0  0  0  0  0  0  0  0  0  0  0  0
   -3.4614    1.6022    0.8401 C   0  0  0  0  0  0  0  0  0  0  0  0
   -2.8086    2.7844    0.4564 C   0  0  0  0  0  0  0  0  0  0  0  0
   -1.4225    2.8976    0.5742 C   0  0  0  0  0  0  0  0  0  0  0  0
   -4.9683    1.4792    0.7202 C   0  0  0  0  0  0  0  0  0  0  0  0
   -5.3948    0.3657   -0.1410 N   0  0  0  0  0  0  0  0  0  0  0  0
   -5.0253    0.5224   -1.5527 C   0  0  0  0  0  0  0  0  0  0  0  0
   -5.7371    1.6058   -2.3540 C   0  0  0  0  0  0  0  0  0  0  0  0
   -6.7521   -0.1191    0.1728 C   0  0  0  0  0  0  0  0  0  0  0  0
   -7.1619   -1.3418   -0.6584 C   0  0  0  0  0  0  0  0  0  0  0  0
   -7.8721    0.9299    0.1471 C   0  0  0  0  0  0  0  0  0  0  0  0
   10.0156   -0.6169    0.5255 H   0  0  0  0  0  0  0  0  0  0  0  0
    9.8233   -0.5508    2.2954 H   0  0  0  0  0  0  0  0  0  0  0  0
    9.4083   -2.0252    1.3900 H   0  0  0  0  0  0  0  0  0  0  0  0
    7.3574   -0.7805    2.0350 H   0  0  0  0  0  0  0  0  0  0  0  0
    7.9689    0.6676    1.1615 H   0  0  0  0  0  0  0  0  0  0  0  0
    6.4013   -1.8107   -2.1571 H   0  0  0  0  0  0  0  0  0  0  0  0
    4.0843   -1.4657   -2.9257 H   0  0  0  0  0  0  0  0  0  0  0  0
    5.5974    0.5560    1.3456 H   0  0  0  0  0  0  0  0  0  0  0  0
    3.3865    2.1771    0.8270 H   0  0  0  0  0  0  0  0  0  0  0  0
    3.0748    0.7864    1.8863 H   0  0  0  0  0  0  0  0  0  0  0  0
    0.1615    0.3344   -0.8417 H   0  0  0  0  0  0  0  0  0  0  0  0
    1.1002   -0.8341    0.1006 H   0  0  0  0  0  0  0  0  0  0  0  0
    1.7548   -0.8907   -2.2808 H   0  0  0  0  0  0  0  0  0  0  0  0
    2.0813    0.8525   -2.2792 H   0  0  0  0  0  0  0  0  0  0  0  0
   -0.7457   -0.1712    1.9047 H   0  0  0  0  0  0  0  0  0  0  0  0
   -3.2014   -0.3775    1.6700 H   0  0  0  0  0  0  0  0  0  0  0  0
   -3.3772    3.6252    0.0670 H   0  0  0  0  0  0  0  0  0  0  0  0
   -0.9221    3.8190    0.2871 H   0  0  0  0  0  0  0  0  0  0  0  0
   -5.4031    2.4286    0.3851 H   0  0  0  0  0  0  0  0  0  0  0  0
   -5.3357    1.3270    1.7457 H   0  0  0  0  0  0  0  0  0  0  0  0
   -3.9466    0.7118   -1.6220 H   0  0  0  0  0  0  0  0  0  0  0  0
   -5.1454   -0.4341   -2.0750 H   0  0  0  0  0  0  0  0  0  0  0  0
   -6.7783    1.3421   -2.5510 H   0  0  0  0  0  0  0  0  0  0  0  0
   -5.7031    2.5807   -1.8594 H   0  0  0  0  0  0  0  0  0  0  0  0
   -5.2487    1.7183   -3.3290 H   0  0  0  0  0  0  0  0  0  0  0  0
   -6.7043   -0.4822    1.2088 H   0  0  0  0  0  0  0  0  0  0  0  0
   -6.3923   -2.1196   -0.6181 H   0  0  0  0  0  0  0  0  0  0  0  0
   -8.0860   -1.7794   -0.2632 H   0  0  0  0  0  0  0  0  0  0  0  0
   -7.3434   -1.0857   -1.7064 H   0  0  0  0  0  0  0  0  0  0  0  0
   -8.8035    0.4917    0.5232 H   0  0  0  0  0  0  0  0  0  0  0  0
   -7.6470    1.7869    0.7882 H   0  0  0  0  0  0  0  0  0  0  0  0
   -8.0776    1.2997   -0.8587 H   0  0  0  0  0  0  0  0  0  0  0  0
  1  2  1  0
  2  3  1  0
  3  4  1  0
  4  5  2  0
  5  6  1  0
  4  7  1  0
  7  8  2  0
  8  9  1  0
  8 10  1  0
 10 11  1  0
 11 12  1  0
 12 13  1  0
 11 14  1  0
 14 15  2  0
 14 16  1  0
 16 17  2  0
 17 18  1  0
 18 19  2  0
 19 20  1  0
 20 21  2  0
 19 22  1  0
 22 23  1  0
 23 24  1  0
 24 25  1  0
 23 26  1  0
 26 27  1  0
 26 28  1  0
  9  6  2  0
 13  9  1  0
 21 16  1  0
  1 29  1  0
  1 30  1  0
  1 31  1  0
  2 32  1  0
  2 33  1  0
  5 34  1  0
  6 35  1  0
  7 36  1  0
 10 37  1  0
 10 38  1  0
 12 39  1  0
 12 40  1  0
 13 41  1  0
 13 42  1  0
 17 43  1  0
 18 44  1  0
 20 45  1  0
 21 46  1  0
 22 47  1  0
 22 48  1  0
 24 49  1  0
 24 50  1  0
 25 51  1  0
 25 52  1  0
 25 53  1  0
 26 54  1  0
 27 55  1  0
 27 56  1  0
 27 57  1  0
 28 58  1  0
 28 59  1  0
 28 60  1  0
M  END
>  <mol_id>  (27) 
Z999693592

>  <drugclip_rank>  (27) 
27

>  <conformer>  (27) 
32

>  <align_rmsd>  (27) 
0.26

$$$$
MCULE-7397041861
     RDKit          3D

 64 66  0  0  0  0  0  0  0  0999 V2000
    3.6124   -1.0984   -1.2363 C   0  0  0  0  0  0  0  0  0  0  0  0
    4.2316   -1.4490   -0.0285 C   0  0  0  0  0  0  0  0  0  0  0  0
    5.2648   -0.6670    0.4940 C   0  0  0  0  0  0  0  0  0  0  0  0
    5.7035    0.4766   -0.1840 C   0  0  0  0  0  0  0  0  0  0  0  0
    5.1027    0.8146   -1.4023 C   0  0  0  0  0  0  0  0  0  0  0  0
    4.0703    0.0327   -1.9251 C   0  0  0  0  0  0  0  0  0  0  0  0
    6.8293    1.3111    0.3704 C   0  0  0  0  0  0  0  0  0  0  0  0
    8.1864    0.8258   -0.1164 C   0  0  0  0  0  0  0  0  0  0  0  0
    2.5097   -1.9651   -1.8017 C   0  0  0  0  0  0  0  0  0  0  0  0
    1.5134   -1.2295   -2.5118 O   0  0  0  0  0  0  0  0  0  0  0  0
    0.5505   -0.5391   -1.8096 C   0  0  0  0  0  0  0  0  0  0  0  0
    0.4457   -0.3994   -0.4759 C   0  0  0  0  0  0  0  0  0  0  0  0
   -0.5405    0.3160    0.2097 N   0  0  0  0  0  0  0  0  0  0  0  0
   -1.5436    0.9661   -0.5430 C   0  0  0  0  0  0  0  0  0  0  0  0
   -1.5434    0.9155   -1.8892 C   0  0  0  0  0  0  0  0  0  0  0  0
   -0.5011    0.1564   -2.6155 C   0  0  0  0  0  0  0  0  0  0  0  0
   -0.5280    0.1175   -3.8434 O   0  0  0  0  0  0  0  0  0  0  0  0
   -2.6516    1.7718    0.1389 C   0  0  0  0  0  0  0  0  0  0  0  0
   -3.5894    0.9664    0.9429 N   0  0  0  0  0  0  0  0  0  0  0  0
   -4.4824    1.8113    1.7492 C   0  0  0  0  0  0  0  0  0  0  0  0
   -5.5764    2.5168    0.9423 C   0  0  0  0  0  0  0  0  0  0  0  0
   -6.3933    1.5009    0.1234 C   0  0  0  0  0  0  0  0  0  0  0  0
   -5.4503    0.6278   -0.7227 C   0  0  0  0  0  0  0  0  0  0  0  0
   -4.3651   -0.0022    0.1560 C   0  0  0  0  0  0  0  0  0  0  0  0
   -7.4884    2.1714   -0.6113 N   0  0  0  0  0  0  0  0  0  0  0  0
   -7.0609    2.9595   -1.7665 C   0  0  0  0  0  0  0  0  0  0  0  0
   -8.5344    1.2277   -1.0114 C   0  0  0  0  0  0  0  0  0  0  0  0
   -0.4353    0.4386    1.6793 C   0  0  0  0  0  0  0  0  0  0  0  0
    0.4833    1.5926    2.0568 C   0  0  0  0  0  0  0  0  0  0  0  0
    3.9149   -2.3357    0.5165 H   0  0  0  0  0  0  0  0  0  0  0  0
    5.7300   -0.9586    1.4331 H   0  0  0  0  0  0  0  0  0  0  0  0
    5.4366    1.6895   -1.9563 H   0  0  0  0  0  0  0  0  0  0  0  0
    3.6200    0.3144   -2.8759 H   0  0  0  0  0  0  0  0  0  0  0  0
    6.7991    1.2893    1.4668 H   0  0  0  0  0  0  0  0  0  0  0  0
    6.6864    2.3604    0.0842 H   0  0  0  0  0  0  0  0  0  0  0  0
    8.3717   -0.2094    0.1899 H   0  0  0  0  0  0  0  0  0  0  0  0
    8.2556    0.8705   -1.2086 H   0  0  0  0  0  0  0  0  0  0  0  0
    8.9832    1.4501    0.2998 H   0  0  0  0  0  0  0  0  0  0  0  0
    2.0425   -2.5925   -1.0324 H   0  0  0  0  0  0  0  0  0  0  0  0
    2.9689   -2.6525   -2.5221 H   0  0  0  0  0  0  0  0  0  0  0  0
    1.1692   -0.8478    0.1949 H   0  0  0  0  0  0  0  0  0  0  0  0
   -2.2875    1.4016   -2.5064 H   0  0  0  0  0  0  0  0  0  0  0  0
   -2.1587    2.5079    0.7873 H   0  0  0  0  0  0  0  0  0  0  0  0
   -3.1932    2.3695   -0.6051 H   0  0  0  0  0  0  0  0  0  0  0  0
   -3.9001    2.5528    2.3101 H   0  0  0  0  0  0  0  0  0  0  0  0
   -4.9555    1.1802    2.5131 H   0  0  0  0  0  0  0  0  0  0  0  0
   -5.1178    3.2731    0.2960 H   0  0  0  0  0  0  0  0  0  0  0  0
   -6.2375    3.0542    1.6339 H   0  0  0  0  0  0  0  0  0  0  0  0
   -6.8658    0.8424    0.8675 H   0  0  0  0  0  0  0  0  0  0  0  0
   -4.9768    1.2143   -1.5176 H   0  0  0  0  0  0  0  0  0  0  0  0
   -6.0121   -0.1752   -1.2130 H   0  0  0  0  0  0  0  0  0  0  0  0
   -4.8423   -0.7028    0.8545 H   0  0  0  0  0  0  0  0  0  0  0  0
   -3.7087   -0.6277   -0.4592 H   0  0  0  0  0  0  0  0  0  0  0  0
   -6.3061    3.7030   -1.4944 H   0  0  0  0  0  0  0  0  0  0  0  0
   -7.9092    3.5246   -2.1702 H   0  0  0  0  0  0  0  0  0  0  0  0
   -6.6612    2.3389   -2.5757 H   0  0  0  0  0  0  0  0  0  0  0  0
   -8.1836    0.5021   -1.7531 H   0  0  0  0  0  0  0  0  0  0  0  0
   -9.3899    1.7637   -1.4382 H   0  0  0  0  0  0  0  0  0  0  0  0
   -8.9171    0.6791   -0.1436 H   0  0  0  0  0  0  0  0  0  0  0  0
   -0.0357   -0.4927    2.1013 H   0  0  0  0  0  0  0  0  0  0  0  0
   -1.4088    0.5731    2.1559 H   0  0  0  0  0  0  0  0  0  0  0  0
    0.5582    1.6757    3.1456 H   0  0  0  0  0  0  0  0  0  0  0  0
    1.4922    1.4422    1.6582 H   0  0  0  0  0  0  0  0  0  0  0  0
    0.1092    2.5444    1.6672 H   0  0  0  0  0  0  0  0  0  0  0  0
  1  2  2  0
  2  3  1  0
  3  4  2  0
  4  5  1  0
  5  6  2  0
  4  7  1  0
  7  8  1  0
  1  9  1  0
  9 10  1  0
 10 11  1  0
 11 12  2  0
 12 13  1  0
 13 14  1  0
 14 15  2  0
 15 16  1  0
 16 17  2  0
 14 18  1  0
 18 19  1  0
 19 20  1  0
 20 21  1  0
 21 22  1  0
 22 23  1  0
 23 24  1  0
 22 25  1  0
 25 26  1  0
 25 27  1  0
 13 28  1  0
 28 29  1  0
  6  1  1  0
 16 11  1  0
 24 19  1  0
  2 30  1  0
  3 31  1  0
  5 32  1  0
  6 33  1  0
  7 34  1  0
  7 35  1  0
  8 36  1  0
  8 37  1  0
  8 38  1  0
  9 39  1  0
  9 40  1  0
 12 41  1  0
 15 42  1  0
 18 43  1  0
 18 44  1  0
 20 45  1  0
 20 46  1  0
 21 47  1  0
 21 48  1  0
 22 49  1  0
 23 50  1  0
 23 51  1  0
 24 52  1  0
 24 53  1  0
 26 54  1  0
 26 55  1  0
 26 56  1  0
 27 57  1  0
 27 58  1  0
 27 59  1  0
 28 60  1  0
 28 61  1  0
 29 62  1  0
 29 63  1  0
 29 64  1  0
M  END
>  <mol_id>  (28) 
MCULE-7397041861

>  <drugclip_rank>  (28) 
28

>  <conformer>  (28) 
4

>  <align_rmsd>  (28) 
0.226

$$$$
STL018562
     RDKit          3D

 61 65  0  0  0  0  0  0  0  0999 V2000
    6.7970    0.2595    2.5437 C   0  0  0  0  0  0  0  0  0  0  0  0
    6.9792    0.2412    3.9274 C   0  0  0  0  0  0  0  0  0  0  0  0
    7.4110   -0.9260    4.5596 C   0  0  0  0  0  0  0  0  0  0  0  0
    7.6720   -2.0747    3.8115 C   0  0  0  0  0  0  0  0  0  0  0  0
    7.4911   -2.0619    2.4280 C   0  0  0  0  0  0  0  0  0  0  0  0
    7.0340   -0.9002    1.7950 C   0  0  0  0  0  0  0  0  0  0  0  0
    6.8610   -0.9077    0.3209 C   0  0  0  0  0  0  0  0  0  0  0  0
    7.7466   -1.4394   -0.3451 O   0  0  0  0  0  0  0  0  0  0  0  0
    5.6949   -0.2793   -0.2711 C   0  0  0  0  0  0  0  0  0  0  0  0
    5.6239    0.3404   -1.5191 C   0  0  0  0  0  0  0  0  0  0  0  0
    4.2971    0.8101   -1.7362 C   0  0  0  0  0  0  0  0  0  0  0  0
    3.5824    0.4280   -0.6343 C   0  0  0  0  0  0  0  0  0  0  0  0
    4.4292   -0.2128    0.2242 N   0  0  0  0  0  0  0  0  0  0  0  0
    2.1938    0.4685   -0.0956 C   0  0  0  0  0  0  0  0  0  0  0  0
    2.2621   -0.6043    1.0237 C   0  0  0  0  0  0  0  0  0  0  0  0
    3.7488   -0.7361    1.3960 C   0  0  0  0  0  0  0  0  0  0  0  0
    1.1226    0.0985   -1.1288 C   0  0  0  0  0  0  0  0  0  0  0  0
    1.3808   -0.5882   -2.1186 O   0  0  0  0  0  0  0  0  0  0  0  0
   -0.1864    0.5124   -0.8556 N   0  0  0  0  0  0  0  0  0  0  0  0
   -0.5139    1.5250    0.1470 C   0  0  0  0  0  0  0  0  0  0  0  0
   -2.0056    1.8502    0.2189 C   0  0  0  0  0  0  0  0  0  0  0  0
   -2.8233    0.5522    0.1633 C   0  0  0  0  0  0  0  0  0  0  0  0
   -2.5418   -0.2190   -1.1444 C   0  0  0  0  0  0  0  0  0  0  0  0
   -1.2317    0.1883   -1.8196 C   0  0  0  0  0  0  0  0  0  0  0  0
   -4.2502    0.7608    0.4935 N   0  0  0  0  0  0  0  0  0  0  0  0
   -4.9749    1.6459   -0.4286 C   0  0  0  0  0  0  0  0  0  0  0  0
   -6.3913    1.9320    0.0779 C   0  0  0  0  0  0  0  0  0  0  0  0
   -7.1690    0.6441    0.3149 C   0  0  0  0  0  0  0  0  0  0  0  0
   -6.3758   -0.2922    1.2165 C   0  0  0  0  0  0  0  0  0  0  0  0
   -4.9614   -0.5146    0.6794 C   0  0  0  0  0  0  0  0  0  0  0  0
    6.4858    1.1810    2.0565 H   0  0  0  0  0  0  0  0  0  0  0  0
    6.7982    1.1394    4.5126 H   0  0  0  0  0  0  0  0  0  0  0  0
    7.5600   -0.9358    5.6371 H   0  0  0  0  0  0  0  0  0  0  0  0
    8.0273   -2.9772    4.3038 H   0  0  0  0  0  0  0  0  0  0  0  0
    7.7104   -2.9528    1.8428 H   0  0  0  0  0  0  0  0  0  0  0  0
    6.4580    0.4362   -2.2042 H   0  0  0  0  0  0  0  0  0  0  0  0
    3.9178    1.3184   -2.6132 H   0  0  0  0  0  0  0  0  0  0  0  0
    2.0300    1.4647    0.3245 H   0  0  0  0  0  0  0  0  0  0  0  0
    1.8916   -1.5717    0.6588 H   0  0  0  0  0  0  0  0  0  0  0  0
    1.6495   -0.3369    1.8912 H   0  0  0  0  0  0  0  0  0  0  0  0
    4.0514   -1.7714    1.5677 H   0  0  0  0  0  0  0  0  0  0  0  0
    4.0013   -0.0967    2.2453 H   0  0  0  0  0  0  0  0  0  0  0  0
   -0.1679    1.1592    1.1193 H   0  0  0  0  0  0  0  0  0  0  0  0
    0.0476    2.4363   -0.0857 H   0  0  0  0  0  0  0  0  0  0  0  0
   -2.2095    2.4081    1.1407 H   0  0  0  0  0  0  0  0  0  0  0  0
   -2.2675    2.5077   -0.6190 H   0  0  0  0  0  0  0  0  0  0  0  0
   -2.4214   -0.0675    0.9797 H   0  0  0  0  0  0  0  0  0  0  0  0
   -3.3453   -0.1034   -1.8790 H   0  0  0  0  0  0  0  0  0  0  0  0
   -2.5065   -1.2904   -0.9078 H   0  0  0  0  0  0  0  0  0  0  0  0
   -1.3842    1.0817   -2.4372 H   0  0  0  0  0  0  0  0  0  0  0  0
   -0.9181   -0.6104   -2.4997 H   0  0  0  0  0  0  0  0  0  0  0  0
   -5.0357    1.2141   -1.4342 H   0  0  0  0  0  0  0  0  0  0  0  0
   -4.4664    2.6112   -0.5193 H   0  0  0  0  0  0  0  0  0  0  0  0
   -6.9239    2.5561   -0.6483 H   0  0  0  0  0  0  0  0  0  0  0  0
   -6.3380    2.5049    1.0124 H   0  0  0  0  0  0  0  0  0  0  0  0
   -8.1414    0.8687    0.7664 H   0  0  0  0  0  0  0  0  0  0  0  0
   -7.3650    0.1516   -0.6454 H   0  0  0  0  0  0  0  0  0  0  0  0
   -6.3228    0.1305    2.2277 H   0  0  0  0  0  0  0  0  0  0  0  0
   -6.8955   -1.2536    1.2986 H   0  0  0  0  0  0  0  0  0  0  0  0
   -5.0157   -1.0773   -0.2610 H   0  0  0  0  0  0  0  0  0  0  0  0
   -4.4240   -1.1397    1.4026 H   0  0  0  0  0  0  0  0  0  0  0  0
  1  2  2  0
  2  3  1  0
  3  4  2  0
  4  5  1  0
  5  6  2  0
  6  7  1  0
  7  8  2  0
  7  9  1  0
  9 10  2  0
 10 11  1  0
 11 12  2  0
 12 13  1  0
 12 14  1  0
 14 15  1  0
 15 16  1  0
 14 17  1  0
 17 18  2  0
 17 19  1  0
 19 20  1  0
 20 21  1  0
 21 22  1  0
 22 23  1  0
 23 24  1  0
 22 25  1  0
 25 26  1  0
 26 27  1  0
 27 28  1  0
 28 29  1  0
 29 30  1  0
  6  1  1  0
 13  9  1  0
 16 13  1  0
 24 19  1  0
 30 25  1  0
  1 31  1  0
  2 32  1  0
  3 33  1  0
  4 34  1  0
  5 35  1  0
 10 36  1  0
 11 37  1  0
 14 38  1  0
 15 39  1  0
 15 40  1  0
 16 41  1  0
 16 42  1  0
 20 43  1  0
 20 44  1  0
 21 45  1  0
 21 46  1  0
 22 47  1  0
 23 48  1  0
 23 49  1  0
 24 50  1  0
 24 51  1  0
 26 52  1  0
 26 53  1  0
 27 54  1  0
 27 55  1  0
 28 56  1  0
 28 57  1  0
 29 58  1  0
 29 59  1  0
 30 60  1  0
 30 61  1  0
M  END
>  <mol_id>  (29) 
STL018562

>  <drugclip_rank>  (29) 
29

>  <conformer>  (29) 
8

>  <align_rmsd>  (29) 
0.609

$$$$
MCULE-9416529564
     RDKit          3D

 59 61  0  0  0  0  0  0  0  0999 V2000
    5.6660   -0.9391   -1.5816 C   0  0  0  0  0  0  0  0  0  0  0  0
    6.1557   -2.1866   -1.6533 F   0  0  0  0  0  0  0  0  0  0  0  0
    6.3261    0.0300   -0.8204 C   0  0  0  0  0  0  0  0  0  0  0  0
    5.7930    1.3193   -0.7747 C   0  0  0  0  0  0  0  0  0  0  0  0
    4.6184    1.6242   -1.4762 C   0  0  0  0  0  0  0  0  0  0  0  0
    3.9509    0.6441   -2.2257 C   0  0  0  0  0  0  0  0  0  0  0  0
    4.4986   -0.6430   -2.2827 C   0  0  0  0  0  0  0  0  0  0  0  0
    2.7003    0.9994   -2.9980 C   0  0  0  0  0  0  0  0  0  0  0  0
    1.7723   -0.0786   -3.1010 O   0  0  0  0  0  0  0  0  0  0  0  0
    0.9464   -0.3707   -2.0388 C   0  0  0  0  0  0  0  0  0  0  0  0
    0.9391    0.1984   -0.8201 C   0  0  0  0  0  0  0  0  0  0  0  0
    0.0875   -0.1226    0.2411 N   0  0  0  0  0  0  0  0  0  0  0  0
   -0.8689   -1.1455    0.0485 C   0  0  0  0  0  0  0  0  0  0  0  0
   -0.9580   -1.8005   -1.1252 C   0  0  0  0  0  0  0  0  0  0  0  0
   -0.0654   -1.4523   -2.2526 C   0  0  0  0  0  0  0  0  0  0  0  0
   -0.1768   -2.0501   -3.3201 O   0  0  0  0  0  0  0  0  0  0  0  0
   -1.8067   -1.5808    1.1764 C   0  0  0  0  0  0  0  0  0  0  0  0
   -2.7452   -0.5398    1.6266 N   0  0  0  0  0  0  0  0  0  0  0  0
   -3.7400   -0.2160    0.5827 C   0  0  0  0  0  0  0  0  0  0  0  0
   -4.7859    0.8184    1.0638 C   0  0  0  0  0  0  0  0  0  0  0  0
   -5.4907    0.3849    2.2882 N   0  0  0  0  0  0  0  0  0  0  0  0
   -4.4888    0.0603    3.3250 C   0  0  0  0  0  0  0  0  0  0  0  0
   -3.4579   -0.9830    2.8409 C   0  0  0  0  0  0  0  0  0  0  0  0
   -6.4205    1.4083    2.7874 C   0  0  0  0  0  0  0  0  0  0  0  0
   -7.6180    1.6220    1.8682 C   0  0  0  0  0  0  0  0  0  0  0  0
    0.2091    0.6333    1.5067 C   0  0  0  0  0  0  0  0  0  0  0  0
   -0.4484    2.0020    1.3929 C   0  0  0  0  0  0  0  0  0  0  0  0
    7.4613   -0.3863   -0.1799 O   0  0  0  0  0  0  0  0  0  0  0  0
    8.1664    0.5783    0.5890 C   0  0  0  0  0  0  0  0  0  0  0  0
    6.2672    2.1130   -0.2068 H   0  0  0  0  0  0  0  0  0  0  0  0
    4.2292    2.6400   -1.4313 H   0  0  0  0  0  0  0  0  0  0  0  0
    4.0251   -1.4290   -2.8659 H   0  0  0  0  0  0  0  0  0  0  0  0
    3.0068    1.2519   -4.0201 H   0  0  0  0  0  0  0  0  0  0  0  0
    2.2063    1.8923   -2.5950 H   0  0  0  0  0  0  0  0  0  0  0  0
    1.6380    0.9851   -0.5618 H   0  0  0  0  0  0  0  0  0  0  0  0
   -1.6670   -2.5957   -1.3148 H   0  0  0  0  0  0  0  0  0  0  0  0
   -1.1718   -1.8944    2.0162 H   0  0  0  0  0  0  0  0  0  0  0  0
   -2.3638   -2.4833    0.8873 H   0  0  0  0  0  0  0  0  0  0  0  0
   -4.2632   -1.1244    0.2544 H   0  0  0  0  0  0  0  0  0  0  0  0
   -3.2384    0.2081   -0.2948 H   0  0  0  0  0  0  0  0  0  0  0  0
   -5.5030    0.9584    0.2476 H   0  0  0  0  0  0  0  0  0  0  0  0
   -4.2847    1.7816    1.2302 H   0  0  0  0  0  0  0  0  0  0  0  0
   -3.9580    0.9675    3.6450 H   0  0  0  0  0  0  0  0  0  0  0  0
   -4.9959   -0.3497    4.2069 H   0  0  0  0  0  0  0  0  0  0  0  0
   -2.7345   -1.1451    3.6493 H   0  0  0  0  0  0  0  0  0  0  0  0
   -3.9698   -1.9386    2.6631 H   0  0  0  0  0  0  0  0  0  0  0  0
   -6.8180    1.0854    3.7581 H   0  0  0  0  0  0  0  0  0  0  0  0
   -5.9082    2.3641    2.9550 H   0  0  0  0  0  0  0  0  0  0  0  0
   -7.3281    2.0854    0.9205 H   0  0  0  0  0  0  0  0  0  0  0  0
   -8.1247    0.6755    1.6525 H   0  0  0  0  0  0  0  0  0  0  0  0
   -8.3426    2.2872    2.3497 H   0  0  0  0  0  0  0  0  0  0  0  0
   -0.2082    0.0879    2.3579 H   0  0  0  0  0  0  0  0  0  0  0  0
    1.2719    0.7664    1.7481 H   0  0  0  0  0  0  0  0  0  0  0  0
   -1.5037    1.9232    1.1179 H   0  0  0  0  0  0  0  0  0  0  0  0
   -0.3824    2.5327    2.3478 H   0  0  0  0  0  0  0  0  0  0  0  0
    0.0453    2.6164    0.6328 H   0  0  0  0  0  0  0  0  0  0  0  0
    9.0410    0.0853    1.0242 H   0  0  0  0  0  0  0  0  0  0  0  0
    8.5258    1.3991   -0.0404 H   0  0  0  0  0  0  0  0  0  0  0  0
    7.5507    0.9525    1.4136 H   0  0  0  0  0  0  0  0  0  0  0  0
  1  2  1  0
  1  3  2  0
  3  4  1  0
  4  5  2  0
  5  6  1  0
  6  7  2  0
  6  8  1  0
  8  9  1  0
  9 10  1  0
 10 11  2  0
 11 12  1  0
 12 13  1  0
 13 14  2  0
 14 15  1  0
 15 16  2  0
 13 17  1  0
 17 18  1  0
 18 19  1  0
 19 20  1  0
 20 21  1  0
 21 22  1  0
 22 23  1  0
 21 24  1  0
 24 25  1  0
 12 26  1  0
 26 27  1  0
  3 28  1  0
 28 29  1  0
  7  1  1  0
 15 10  1  0
 23 18  1  0
  4 30  1  0
  5 31  1  0
  7 32  1  0
  8 33  1  0
  8 34  1  0
 11 35  1  0
 14 36  1  0
 17 37  1  0
 17 38  1  0
 19 39  1  0
 19 40  1  0
 20 41  1  0
 20 42  1  0
 22 43  1  0
 22 44  1  0
 23 45  1  0
 23 46  1  0
 24 47  1  0
 24 48  1  0
 25 49  1  0
 25 50  1  0
 25 51  1  0
 26 52  1  0
 26 53  1  0
 27 54  1  0
 27 55  1  0
 27 56  1  0
 29 57  1  0
 29 58  1  0
 29 59  1  0
M  END
>  <mol_id>  (30) 
MCULE-9416529564

>  <drugclip_rank>  (30) 
30

>  <conformer>  (30) 
1

>  <align_rmsd>  (30) 
1.212

$$$$
Z4493402179
     RDKit          3D

 59 62  0  0  0  0  0  0  0  0999 V2000
    8.0560   -0.6388    1.1419 C   0  0  0  0  0  0  0  0  0  0  0  0
    7.5902   -1.0405   -0.1385 O   0  0  0  0  0  0  0  0  0  0  0  0
    6.2550   -0.8721   -0.4151 C   0  0  0  0  0  0  0  0  0  0  0  0
    5.3338   -0.3010    0.4772 C   0  0  0  0  0  0  0  0  0  0  0  0
    5.8304   -1.3233   -1.6965 C   0  0  0  0  0  0  0  0  0  0  0  0
    6.8087   -1.8659   -2.4940 O   0  0  0  0  0  0  0  0  0  0  0  0
    6.4173   -2.3798   -3.7591 C   0  0  0  0  0  0  0  0  0  0  0  0
    4.4914   -1.1981   -2.0755 C   0  0  0  0  0  0  0  0  0  0  0  0
    3.6183   -0.6284   -1.1671 C   0  0  0  0  0  0  0  0  0  0  0  0
    4.0091   -0.1835    0.0852 C   0  0  0  0  0  0  0  0  0  0  0  0
    2.1919   -0.3824   -1.3218 C   0  0  0  0  0  0  0  0  0  0  0  0
    1.5601   -0.7135   -2.3098 O   0  0  0  0  0  0  0  0  0  0  0  0
    1.6643    0.3537   -0.0989 C   0  0  0  0  0  0  0  0  0  0  0  0
    2.8660    0.3586    0.8811 C   0  0  0  0  0  0  0  0  0  0  0  0
    0.4361   -0.3357    0.5096 C   0  0  0  0  0  0  0  0  0  0  0  0
   -0.8878   -0.0261   -0.2219 C   0  0  0  0  0  0  0  0  0  0  0  0
   -1.9736   -1.0173    0.2280 C   0  0  0  0  0  0  0  0  0  0  0  0
   -3.3703   -0.5452   -0.1773 C   0  0  0  0  0  0  0  0  0  0  0  0
   -3.7204    0.7908    0.3261 N   0  0  0  0  0  0  0  0  0  0  0  0
   -2.5853    1.5306    0.8822 C   0  0  0  0  0  0  0  0  0  0  0  0
   -1.3517    1.4292   -0.0159 C   0  0  0  0  0  0  0  0  0  0  0  0
   -4.8536    0.7832    1.2615 C   0  0  0  0  0  0  0  0  0  0  0  0
   -6.1752    0.4227    0.6187 C   0  0  0  0  0  0  0  0  0  0  0  0
   -6.8618   -0.7092    1.0636 C   0  0  0  0  0  0  0  0  0  0  0  0
   -8.0519   -1.1317    0.5796 N   0  0  0  0  0  0  0  0  0  0  0  0
   -8.5918   -0.3914   -0.4085 C   0  0  0  0  0  0  0  0  0  0  0  0
   -8.0031    0.7521   -0.9249 C   0  0  0  0  0  0  0  0  0  0  0  0
   -6.7785    1.1843   -0.3999 C   0  0  0  0  0  0  0  0  0  0  0  0
   -6.1300    2.4138   -0.9731 C   0  0  0  0  0  0  0  0  0  0  0  0
    9.1249   -0.8652    1.1947 H   0  0  0  0  0  0  0  0  0  0  0  0
    7.9367    0.4406    1.2849 H   0  0  0  0  0  0  0  0  0  0  0  0
    7.5582   -1.2014    1.9386 H   0  0  0  0  0  0  0  0  0  0  0  0
    5.6241    0.0473    1.4616 H   0  0  0  0  0  0  0  0  0  0  0  0
    6.0302   -1.5853   -4.4043 H   0  0  0  0  0  0  0  0  0  0  0  0
    5.6909   -3.1908   -3.6493 H   0  0  0  0  0  0  0  0  0  0  0  0
    7.3072   -2.7953   -4.2412 H   0  0  0  0  0  0  0  0  0  0  0  0
    4.1118   -1.5203   -3.0379 H   0  0  0  0  0  0  0  0  0  0  0  0
    1.4483    1.3852   -0.3989 H   0  0  0  0  0  0  0  0  0  0  0  0
    3.0759    1.3778    1.2215 H   0  0  0  0  0  0  0  0  0  0  0  0
    2.6879   -0.2764    1.7551 H   0  0  0  0  0  0  0  0  0  0  0  0
    0.6010   -1.4215    0.5082 H   0  0  0  0  0  0  0  0  0  0  0  0
    0.3289   -0.0346    1.5602 H   0  0  0  0  0  0  0  0  0  0  0  0
   -0.7332   -0.1725   -1.2981 H   0  0  0  0  0  0  0  0  0  0  0  0
   -1.7770   -2.0006   -0.2165 H   0  0  0  0  0  0  0  0  0  0  0  0
   -1.9400   -1.1578    1.3164 H   0  0  0  0  0  0  0  0  0  0  0  0
   -4.0929   -1.3094    0.1319 H   0  0  0  0  0  0  0  0  0  0  0  0
   -3.4242   -0.5089   -1.2727 H   0  0  0  0  0  0  0  0  0  0  0  0
   -2.8563    2.5890    0.9777 H   0  0  0  0  0  0  0  0  0  0  0  0
   -2.3332    1.1719    1.8890 H   0  0  0  0  0  0  0  0  0  0  0  0
   -0.5546    2.0519    0.4042 H   0  0  0  0  0  0  0  0  0  0  0  0
   -1.5903    1.8648   -0.9957 H   0  0  0  0  0  0  0  0  0  0  0  0
   -4.6372    0.1134    2.1046 H   0  0  0  0  0  0  0  0  0  0  0  0
   -4.9861    1.7789    1.7052 H   0  0  0  0  0  0  0  0  0  0  0  0
   -6.4555   -1.3385    1.8521 H   0  0  0  0  0  0  0  0  0  0  0  0
   -9.5426   -0.7510   -0.7913 H   0  0  0  0  0  0  0  0  0  0  0  0
   -8.4962    1.2952   -1.7253 H   0  0  0  0  0  0  0  0  0  0  0  0
   -6.8560    3.0206   -1.5262 H   0  0  0  0  0  0  0  0  0  0  0  0
   -5.7263    3.0522   -0.1814 H   0  0  0  0  0  0  0  0  0  0  0  0
   -5.3284    2.1332   -1.6629 H   0  0  0  0  0  0  0  0  0  0  0  0
  1  2  1  0
  2  3  1  0
  3  4  2  0
  3  5  1  0
  5  6  1  0
  6  7  1  0
  5  8  2  0
  8  9  1  0
  9 10  2  0
  9 11  1  0
 11 12  2  0
 11 13  1  0
 13 14  1  0
 13 15  1  0
 15 16  1  0
 16 17  1  0
 17 18  1  0
 18 19  1  0
 19 20  1  0
 20 21  1  0
 19 22  1  0
 22 23  1  0
 23 24  2  0
 24 25  1  0
 25 26  2  0
 26 27  1  0
 27 28  2  0
 28 29  1  0
 10  4  1  0
 14 10  1  0
 21 16  1  0
 28 23  1  0
  1 30  1  0
  1 31  1  0
  1 32  1  0
  4 33  1  0
  7 34  1  0
  7 35  1  0
  7 36  1  0
  8 37  1  0
 13 38  1  0
 14 39  1  0
 14 40  1  0
 15 41  1  0
 15 42  1  0
 16 43  1  0
 17 44  1  0
 17 45  1  0
 18 46  1  0
 18 47  1  0
 20 48  1  0
 20 49  1  0
 21 50  1  0
 21 51  1  0
 22 52  1  0
 22 53  1  0
 24 54  1  0
 26 55  1  0
 27 56  1  0
 29 57  1  0
 29 58  1  0
 29 59  1  0
M  END
>  <mol_id>  (31) 
Z4493402179

>  <drugclip_rank>  (31) 
31

>  <conformer>  (31) 
26

>  <align_rmsd>  (31) 
0.526

$$$$
S420-0307
     RDKit          3D

 64 68  0  0  0  0  0  0  0  0999 V2000
    8.4079    0.4625    2.0663 C   0  0  0  0  0  0  0  0  0  0  0  0
    8.3190   -0.5158    3.2413 C   0  0  0  0  0  0  0  0  0  0  0  0
    7.1852   -0.1350    4.2020 C   0  0  0  0  0  0  0  0  0  0  0  0
    5.8583    0.0951    3.4638 C   0  0  0  0  0  0  0  0  0  0  0  0
    6.0660    1.0728    2.2965 C   0  0  0  0  0  0  0  0  0  0  0  0
    7.1058    0.5801    1.4244 N   0  0  0  0  0  0  0  0  0  0  0  0
    4.8345    1.3451    1.5671 N   0  0  0  0  0  0  0  0  0  0  0  0
    3.8664    2.2218    2.2136 C   0  0  0  0  0  0  0  0  0  0  0  0
    4.4491    0.4565    0.5709 C   0  0  0  0  0  0  0  0  0  0  0  0
    5.3950   -0.3912   -0.0274 C   0  0  0  0  0  0  0  0  0  0  0  0
    6.8053   -0.3226    0.4138 C   0  0  0  0  0  0  0  0  0  0  0  0
    7.6434   -1.0513   -0.1125 O   0  0  0  0  0  0  0  0  0  0  0  0
    5.0488   -1.2825   -1.0564 C   0  0  0  0  0  0  0  0  0  0  0  0
    3.7360   -1.3443   -1.5119 C   0  0  0  0  0  0  0  0  0  0  0  0
    2.7717   -0.5205   -0.9329 C   0  0  0  0  0  0  0  0  0  0  0  0
    3.1322    0.3824    0.0829 C   0  0  0  0  0  0  0  0  0  0  0  0
    1.3780   -0.5988   -1.4421 C   0  0  0  0  0  0  0  0  0  0  0  0
    1.1705   -0.8063   -2.6310 O   0  0  0  0  0  0  0  0  0  0  0  0
    0.3803   -0.4490   -0.5009 N   0  0  0  0  0  0  0  0  0  0  0  0
   -1.0263   -0.3582   -0.8832 C   0  0  0  0  0  0  0  0  0  0  0  0
   -1.9417   -0.8265    0.2558 C   0  0  0  0  0  0  0  0  0  0  0  0
   -2.3982    0.3411    1.1270 C   0  0  0  0  0  0  0  0  0  0  0  0
   -1.3544    1.0684   -1.3468 C   0  0  0  0  0  0  0  0  0  0  0  0
   -2.8118    1.4148   -1.0592 C   0  0  0  0  0  0  0  0  0  0  0  0
   -3.0764    1.3989    0.3801 N   0  0  0  0  0  0  0  0  0  0  0  0
   -4.4812    1.6225    0.7398 C   0  0  0  0  0  0  0  0  0  0  0  0
   -5.4633    0.5397    0.3412 C   0  0  0  0  0  0  0  0  0  0  0  0
   -6.1224    0.5961   -0.8969 C   0  0  0  0  0  0  0  0  0  0  0  0
   -7.0274   -0.3994   -1.2698 C   0  0  0  0  0  0  0  0  0  0  0  0
   -7.2904   -1.4612   -0.4076 C   0  0  0  0  0  0  0  0  0  0  0  0
   -6.6521   -1.5262    0.8289 C   0  0  0  0  0  0  0  0  0  0  0  0
   -5.7462   -0.5310    1.2022 C   0  0  0  0  0  0  0  0  0  0  0  0
    8.7062    1.4578    2.4159 H   0  0  0  0  0  0  0  0  0  0  0  0
    9.1647    0.1248    1.3504 H   0  0  0  0  0  0  0  0  0  0  0  0
    8.1352   -1.5284    2.8610 H   0  0  0  0  0  0  0  0  0  0  0  0
    9.2726   -0.5407    3.7797 H   0  0  0  0  0  0  0  0  0  0  0  0
    7.4618    0.7831    4.7352 H   0  0  0  0  0  0  0  0  0  0  0  0
    7.0588   -0.9179    4.9580 H   0  0  0  0  0  0  0  0  0  0  0  0
    5.4799   -0.8682    3.0987 H   0  0  0  0  0  0  0  0  0  0  0  0
    5.1115    0.4826    4.1662 H   0  0  0  0  0  0  0  0  0  0  0  0
    6.4358    2.0261    2.6986 H   0  0  0  0  0  0  0  0  0  0  0  0
    3.3558    2.8539    1.4789 H   0  0  0  0  0  0  0  0  0  0  0  0
    3.1237    1.6419    2.7725 H   0  0  0  0  0  0  0  0  0  0  0  0
    4.3563    2.9014    2.9199 H   0  0  0  0  0  0  0  0  0  0  0  0
    5.8071   -1.9178   -1.5100 H   0  0  0  0  0  0  0  0  0  0  0  0
    3.4688   -2.0267   -2.3160 H   0  0  0  0  0  0  0  0  0  0  0  0
    2.3713    1.0511    0.4710 H   0  0  0  0  0  0  0  0  0  0  0  0
    0.6250   -0.2768    0.4636 H   0  0  0  0  0  0  0  0  0  0  0  0
   -1.1735   -1.0437   -1.7277 H   0  0  0  0  0  0  0  0  0  0  0  0
   -2.8286   -1.3119   -0.1729 H   0  0  0  0  0  0  0  0  0  0  0  0
   -1.4439   -1.5841    0.8729 H   0  0  0  0  0  0  0  0  0  0  0  0
   -1.5135    0.7880    1.5989 H   0  0  0  0  0  0  0  0  0  0  0  0
   -3.0020   -0.0359    1.9591 H   0  0  0  0  0  0  0  0  0  0  0  0
   -1.1496    1.1635   -2.4201 H   0  0  0  0  0  0  0  0  0  0  0  0
   -0.7032    1.7996   -0.8482 H   0  0  0  0  0  0  0  0  0  0  0  0
   -3.4455    0.7033   -1.6002 H   0  0  0  0  0  0  0  0  0  0  0  0
   -3.0259    2.4131   -1.4580 H   0  0  0  0  0  0  0  0  0  0  0  0
   -4.8125    2.5753    0.3048 H   0  0  0  0  0  0  0  0  0  0  0  0
   -4.5555    1.7880    1.8232 H   0  0  0  0  0  0  0  0  0  0  0  0
   -5.9307    1.4196   -1.5814 H   0  0  0  0  0  0  0  0  0  0  0  0
   -7.5274   -0.3458   -2.2334 H   0  0  0  0  0  0  0  0  0  0  0  0
   -7.9951   -2.2357   -0.6983 H   0  0  0  0  0  0  0  0  0  0  0  0
   -6.8615   -2.3514    1.5046 H   0  0  0  0  0  0  0  0  0  0  0  0
   -5.2666   -0.5948    2.1757 H   0  0  0  0  0  0  0  0  0  0  0  0
  1  2  1  0
  2  3  1  0
  3  4  1  0
  4  5  1  0
  5  6  1  0
  5  7  1  0
  7  8  1  0
  7  9  1  0
  9 10  2  0
 10 11  1  0
 11 12  2  0
 10 13  1  0
 13 14  2  0
 14 15  1  0
 15 16  2  0
 15 17  1  0
 17 18  2  0
 17 19  1  0
 19 20  1  0
 20 21  1  0
 21 22  1  0
 20 23  1  0
 23 24  1  0
 24 25  1  0
 25 26  1  0
 26 27  1  0
 27 28  2  0
 28 29  1  0
 29 30  2  0
 30 31  1  0
 31 32  2  0
  6  1  1  0
 11  6  1  0
 16  9  1  0
 25 22  1  0
 32 27  1  0
  1 33  1  0
  1 34  1  0
  2 35  1  0
  2 36  1  0
  3 37  1  0
  3 38  1  0
  4 39  1  0
  4 40  1  0
  5 41  1  0
  8 42  1  0
  8 43  1  0
  8 44  1  0
 13 45  1  0
 14 46  1  0
 16 47  1  0
 19 48  1  0
 20 49  1  0
 21 50  1  0
 21 51  1  0
 22 52  1  0
 22 53  1  0
 23 54  1  0
 23 55  1  0
 24 56  1  0
 24 57  1  0
 26 58  1  0
 26 59  1  0
 28 60  1  0
 29 61  1  0
 30 62  1  0
 31 63  1  0
 32 64  1  0
M  END
>  <mol_id>  (32) 
S420-0307

>  <drugclip_rank>  (32) 
32

>  <conformer>  (32) 
23

>  <align_rmsd>  (32) 
0.574

$$$$
STK606127
     RDKit          3D

 64 68  0  0  0  0  0  0  0  0999 V2000
    6.7643   -1.3128   -1.8070 O   0  0  0  0  0  0  0  0  0  0  0  0
    7.9570   -1.1267   -1.1366 C   0  0  0  0  0  0  0  0  0  0  0  0
    9.0356   -1.4855   -1.5943 O   0  0  0  0  0  0  0  0  0  0  0  0
    7.8786   -0.4659    0.1723 C   0  0  0  0  0  0  0  0  0  0  0  0
    6.7306   -0.0515    0.7299 C   0  0  0  0  0  0  0  0  0  0  0  0
    6.7396    0.6185    2.0841 C   0  0  0  0  0  0  0  0  0  0  0  0
    6.6418    2.1442    1.9809 C   0  0  0  0  0  0  0  0  0  0  0  0
    6.6402    2.7933    3.3564 C   0  0  0  0  0  0  0  0  0  0  0  0
    5.4738   -0.2943   -0.0001 C   0  0  0  0  0  0  0  0  0  0  0  0
    5.5251   -0.9089   -1.2575 C   0  0  0  0  0  0  0  0  0  0  0  0
    4.2126    0.0566    0.4964 C   0  0  0  0  0  0  0  0  0  0  0  0
    3.0422   -0.1992   -0.2397 C   0  0  0  0  0  0  0  0  0  0  0  0
    3.1314   -0.8304   -1.4818 C   0  0  0  0  0  0  0  0  0  0  0  0
    4.3768   -1.1677   -2.0267 C   0  0  0  0  0  0  0  0  0  0  0  0
    4.4810   -1.8512   -3.3619 C   0  0  0  0  0  0  0  0  0  0  0  0
    2.0137   -1.1135   -2.2174 O   0  0  0  0  0  0  0  0  0  0  0  0
    0.7803   -1.0269   -1.4920 C   0  0  0  0  0  0  0  0  0  0  0  0
    0.6450    0.2014   -0.6989 N   0  0  0  0  0  0  0  0  0  0  0  0
    1.6957    0.1721    0.3250 C   0  0  0  0  0  0  0  0  0  0  0  0
   -0.7172    0.3303   -0.1158 C   0  0  0  0  0  0  0  0  0  0  0  0
   -1.7835    0.4660   -1.2325 C   0  0  0  0  0  0  0  0  0  0  0  0
   -3.0457    1.2214   -0.8014 C   0  0  0  0  0  0  0  0  0  0  0  0
   -0.8750    1.5222    0.8450 C   0  0  0  0  0  0  0  0  0  0  0  0
   -2.2840    1.5684    1.4581 C   0  0  0  0  0  0  0  0  0  0  0  0
   -3.3218    0.9645    0.6109 N   0  0  0  0  0  0  0  0  0  0  0  0
   -4.6569    1.4341    1.0198 C   0  0  0  0  0  0  0  0  0  0  0  0
   -5.7903    0.6218    0.4282 C   0  0  0  0  0  0  0  0  0  0  0  0
   -6.8372    1.2535   -0.2586 C   0  0  0  0  0  0  0  0  0  0  0  0
   -7.8907    0.5053   -0.7882 C   0  0  0  0  0  0  0  0  0  0  0  0
   -7.9118   -0.8795   -0.6332 C   0  0  0  0  0  0  0  0  0  0  0  0
   -6.8815   -1.5187    0.0534 C   0  0  0  0  0  0  0  0  0  0  0  0
   -5.8285   -0.7723    0.5845 C   0  0  0  0  0  0  0  0  0  0  0  0
    8.8367   -0.3266    0.6608 H   0  0  0  0  0  0  0  0  0  0  0  0
    7.6687    0.3658    2.6138 H   0  0  0  0  0  0  0  0  0  0  0  0
    5.9387    0.2178    2.7169 H   0  0  0  0  0  0  0  0  0  0  0  0
    5.7311    2.4407    1.4484 H   0  0  0  0  0  0  0  0  0  0  0  0
    7.4896    2.5332    1.4037 H   0  0  0  0  0  0  0  0  0  0  0  0
    7.5491    2.5410    3.9112 H   0  0  0  0  0  0  0  0  0  0  0  0
    5.7764    2.4646    3.9426 H   0  0  0  0  0  0  0  0  0  0  0  0
    6.5916    3.8824    3.2615 H   0  0  0  0  0  0  0  0  0  0  0  0
    4.1106    0.5387    1.4650 H   0  0  0  0  0  0  0  0  0  0  0  0
    5.3902   -1.5498   -3.8925 H   0  0  0  0  0  0  0  0  0  0  0  0
    3.6452   -1.5884   -4.0181 H   0  0  0  0  0  0  0  0  0  0  0  0
    4.4926   -2.9368   -3.2244 H   0  0  0  0  0  0  0  0  0  0  0  0
    0.6657   -1.9319   -0.8789 H   0  0  0  0  0  0  0  0  0  0  0  0
    0.0093   -1.0724   -2.2664 H   0  0  0  0  0  0  0  0  0  0  0  0
    1.7933    1.1699    0.7677 H   0  0  0  0  0  0  0  0  0  0  0  0
    1.4522   -0.5427    1.1223 H   0  0  0  0  0  0  0  0  0  0  0  0
   -0.9366   -0.5825    0.4579 H   0  0  0  0  0  0  0  0  0  0  0  0
   -2.0696   -0.5393   -1.5685 H   0  0  0  0  0  0  0  0  0  0  0  0
   -1.3673    0.9852   -2.1057 H   0  0  0  0  0  0  0  0  0  0  0  0
   -2.9257    2.2975   -0.9854 H   0  0  0  0  0  0  0  0  0  0  0  0
   -3.8655    0.8863   -1.4473 H   0  0  0  0  0  0  0  0  0  0  0  0
   -0.6801    2.4565    0.3018 H   0  0  0  0  0  0  0  0  0  0  0  0
   -0.1587    1.4774    1.6722 H   0  0  0  0  0  0  0  0  0  0  0  0
   -2.5128    2.6172    1.6902 H   0  0  0  0  0  0  0  0  0  0  0  0
   -2.2715    1.0282    2.4131 H   0  0  0  0  0  0  0  0  0  0  0  0
   -4.7598    1.3544    2.1106 H   0  0  0  0  0  0  0  0  0  0  0  0
   -4.7782    2.4973    0.7726 H   0  0  0  0  0  0  0  0  0  0  0  0
   -6.8381    2.3331   -0.3887 H   0  0  0  0  0  0  0  0  0  0  0  0
   -8.6955    1.0035   -1.3226 H   0  0  0  0  0  0  0  0  0  0  0  0
   -8.7314   -1.4606   -1.0475 H   0  0  0  0  0  0  0  0  0  0  0  0
   -6.8954   -2.5985    0.1747 H   0  0  0  0  0  0  0  0  0  0  0  0
   -5.0261   -1.2798    1.1159 H   0  0  0  0  0  0  0  0  0  0  0  0
  1  2  1  0
  2  3  2  0
  2  4  1  0
  4  5  2  0
  5  6  1  0
  6  7  1  0
  7  8  1  0
  5  9  1  0
  9 10  2  0
  9 11  1  0
 11 12  2  0
 12 13  1  0
 13 14  2  0
 14 15  1  0
 13 16  1  0
 16 17  1  0
 17 18  1  0
 18 19  1  0
 18 20  1  0
 20 21  1  0
 21 22  1  0
 20 23  1  0
 23 24  1  0
 24 25  1  0
 25 26  1  0
 26 27  1  0
 27 28  2  0
 28 29  1  0
 29 30  2  0
 30 31  1  0
 31 32  2  0
 10  1  1  0
 14 10  1  0
 19 12  1  0
 25 22  1  0
 32 27  1  0
  4 33  1  0
  6 34  1  0
  6 35  1  0
  7 36  1  0
  7 37  1  0
  8 38  1  0
  8 39  1  0
  8 40  1  0
 11 41  1  0
 15 42  1  0
 15 43  1  0
 15 44  1  0
 17 45  1  0
 17 46  1  0
 19 47  1  0
 19 48  1  0
 20 49  1  0
 21 50  1  0
 21 51  1  0
 22 52  1  0
 22 53  1  0
 23 54  1  0
 23 55  1  0
 24 56  1  0
 24 57  1  0
 26 58  1  0
 26 59  1  0
 28 60  1  0
 29 61  1  0
 30 62  1  0
 31 63  1  0
 32 64  1  0
M  END
>  <mol_id>  (33) 
STK606127

>  <drugclip_rank>  (33) 
33

>  <conformer>  (33) 
13

>  <align_rmsd>  (33) 
0.556

$$$$
STL349826
     RDKit          3D

 50 54  0  0  0  0  0  0  0  0999 V2000
   -1.4972   -0.5563    1.7420 C   0  0  0  0  0  0  0  0  0  0  0  0
   -2.2168   -1.5936    2.3394 C   0  0  0  0  0  0  0  0  0  0  0  0
   -2.9308   -2.4932    1.5514 C   0  0  0  0  0  0  0  0  0  0  0  0
   -2.9273   -2.3558    0.1657 C   0  0  0  0  0  0  0  0  0  0  0  0
   -2.2091   -1.3189   -0.4327 C   0  0  0  0  0  0  0  0  0  0  0  0
   -1.4848   -0.4056    0.3477 C   0  0  0  0  0  0  0  0  0  0  0  0
   -0.6921    0.7064   -0.3094 C   0  0  0  0  0  0  0  0  0  0  0  0
    0.7291    0.3059   -0.6564 C   0  0  0  0  0  0  0  0  0  0  0  0
    0.8506   -0.3329   -1.9979 C   0  0  0  0  0  0  0  0  0  0  0  0
    2.0980   -0.7961   -2.3693 O   0  0  0  0  0  0  0  0  0  0  0  0
   -0.1033   -0.4399   -2.7621 O   0  0  0  0  0  0  0  0  0  0  0  0
    1.8198    0.5274    0.1134 C   0  0  0  0  0  0  0  0  0  0  0  0
    1.7783    1.2175    1.4543 C   0  0  0  0  0  0  0  0  0  0  0  0
    3.1442    0.0581   -0.3531 C   0  0  0  0  0  0  0  0  0  0  0  0
    3.2434   -0.6070   -1.5750 C   0  0  0  0  0  0  0  0  0  0  0  0
    4.3279    0.2333    0.3784 C   0  0  0  0  0  0  0  0  0  0  0  0
    5.5623   -0.2359   -0.1025 C   0  0  0  0  0  0  0  0  0  0  0  0
    5.6227   -0.8776   -1.3429 C   0  0  0  0  0  0  0  0  0  0  0  0
    4.4580   -1.1024   -2.0849 C   0  0  0  0  0  0  0  0  0  0  0  0
    4.5081   -1.7888   -3.4219 C   0  0  0  0  0  0  0  0  0  0  0  0
    6.8075   -1.3432   -1.8510 O   0  0  0  0  0  0  0  0  0  0  0  0
    7.9771   -0.8241   -1.2051 C   0  0  0  0  0  0  0  0  0  0  0  0
    7.9385   -0.8556    0.2588 N   0  0  0  0  0  0  0  0  0  0  0  0
    6.8211   -0.0132    0.6936 C   0  0  0  0  0  0  0  0  0  0  0  0
    7.8727   -2.2297    0.7911 C   0  0  0  0  0  0  0  0  0  0  0  0
    8.3934   -2.5024    2.1770 C   0  0  0  0  0  0  0  0  0  0  0  0
    9.1525   -2.9987    0.9826 C   0  0  0  0  0  0  0  0  0  0  0  0
   -0.9519    0.1341    2.3789 H   0  0  0  0  0  0  0  0  0  0  0  0
   -2.2201   -1.6996    3.4211 H   0  0  0  0  0  0  0  0  0  0  0  0
   -3.4899   -3.3008    2.0161 H   0  0  0  0  0  0  0  0  0  0  0  0
   -3.4822   -3.0561   -0.4532 H   0  0  0  0  0  0  0  0  0  0  0  0
   -2.2191   -1.2300   -1.5180 H   0  0  0  0  0  0  0  0  0  0  0  0
   -0.7138    1.5910    0.3369 H   0  0  0  0  0  0  0  0  0  0  0  0
   -1.2282    1.0512   -1.2039 H   0  0  0  0  0  0  0  0  0  0  0  0
    2.1102    0.5379    2.2470 H   0  0  0  0  0  0  0  0  0  0  0  0
    2.4236    2.1032    1.4511 H   0  0  0  0  0  0  0  0  0  0  0  0
    0.7877    1.5705    1.7427 H   0  0  0  0  0  0  0  0  0  0  0  0
    4.3190    0.7377    1.3414 H   0  0  0  0  0  0  0  0  0  0  0  0
    4.6074   -1.0451   -4.2186 H   0  0  0  0  0  0  0  0  0  0  0  0
    5.3475   -2.4885   -3.4871 H   0  0  0  0  0  0  0  0  0  0  0  0
    3.6042   -2.3812   -3.5984 H   0  0  0  0  0  0  0  0  0  0  0  0
    8.8288   -1.4147   -1.5629 H   0  0  0  0  0  0  0  0  0  0  0  0
    8.1551    0.1977   -1.5675 H   0  0  0  0  0  0  0  0  0  0  0  0
    7.1113    1.0396    0.5824 H   0  0  0  0  0  0  0  0  0  0  0  0
    6.6257   -0.1701    1.7619 H   0  0  0  0  0  0  0  0  0  0  0  0
    7.0069   -2.8143    0.4810 H   0  0  0  0  0  0  0  0  0  0  0  0
    7.8635   -3.2293    2.7809 H   0  0  0  0  0  0  0  0  0  0  0  0
    8.8215   -1.6819    2.7406 H   0  0  0  0  0  0  0  0  0  0  0  0
   10.0905   -2.5119    0.7428 H   0  0  0  0  0  0  0  0  0  0  0  0
    9.1372   -4.0618    0.7741 H   0  0  0  0  0  0  0  0  0  0  0  0
  1  2  2  0
  2  3  1  0
  3  4  2  0
  4  5  1  0
  5  6  2  0
  6  7  1  0
  7  8  1  0
  8  9  1  0
  9 10  1  0
  9 11  2  0
  8 12  2  0
 12 13  1  0
 12 14  1  0
 14 15  2  0
 14 16  1  0
 16 17  2  0
 17 18  1  0
 18 19  2  0
 19 20  1  0
 18 21  1  0
 21 22  1  0
 22 23  1  0
 23 24  1  0
 23 25  1  0
 25 26  1  0
 26 27  1  0
  6  1  1  0
 15 10  1  0
 19 15  1  0
 24 17  1  0
 27 25  1  0
  1 28  1  0
  2 29  1  0
  3 30  1  0
  4 31  1  0
  5 32  1  0
  7 33  1  0
  7 34  1  0
 13 35  1  0
 13 36  1  0
 13 37  1  0
 16 38  1  0
 20 39  1  0
 20 40  1  0
 20 41  1  0
 22 42  1  0
 22 43  1  0
 24 44  1  0
 24 45  1  0
 25 46  1  0
 26 47  1  0
 26 48  1  0
 27 49  1  0
 27 50  1  0
M  END
>  <mol_id>  (34) 
STL349826

>  <drugclip_rank>  (34) 
34

>  <conformer>  (34) 
4

>  <align_rmsd>  (34) 
0.62

$$$$
OSSM_359540
     RDKit          3D

 50 54  0  0  0  0  0  0  0  0999 V2000
   -1.4972   -0.5563    1.7420 C   0  0  0  0  0  0  0  0  0  0  0  0
   -2.2168   -1.5936    2.3394 C   0  0  0  0  0  0  0  0  0  0  0  0
   -2.9308   -2.4932    1.5514 C   0  0  0  0  0  0  0  0  0  0  0  0
   -2.9273   -2.3558    0.1657 C   0  0  0  0  0  0  0  0  0  0  0  0
   -2.2091   -1.3189   -0.4327 C   0  0  0  0  0  0  0  0  0  0  0  0
   -1.4848   -0.4056    0.3477 C   0  0  0  0  0  0  0  0  0  0  0  0
   -0.6921    0.7064   -0.3094 C   0  0  0  0  0  0  0  0  0  0  0  0
    0.7291    0.3059   -0.6564 C   0  0  0  0  0  0  0  0  0  0  0  0
    0.8506   -0.3329   -1.9979 C   0  0  0  0  0  0  0  0  0  0  0  0
    2.0980   -0.7961   -2.3693 O   0  0  0  0  0  0  0  0  0  0  0  0
   -0.1033   -0.4399   -2.7621 O   0  0  0  0  0  0  0  0  0  0  0  0
    1.8198    0.5274    0.1134 C   0  0  0  0  0  0  0  0  0  0  0  0
    1.7783    1.2175    1.4543 C   0  0  0  0  0  0  0  0  0  0  0  0
    3.1442    0.0581   -0.3531 C   0  0  0  0  0  0  0  0  0  0  0  0
    3.2434   -0.6070   -1.5750 C   0  0  0  0  0  0  0  0  0  0  0  0
    4.3279    0.2333    0.3784 C   0  0  0  0  0  0  0  0  0  0  0  0
    5.5623   -0.2359   -0.1025 C   0  0  0  0  0  0  0  0  0  0  0  0
    5.6227   -0.8776   -1.3429 C   0  0  0  0  0  0  0  0  0  0  0  0
    4.4580   -1.1024   -2.0849 C   0  0  0  0  0  0  0  0  0  0  0  0
    4.5081   -1.7888   -3.4219 C   0  0  0  0  0  0  0  0  0  0  0  0
    6.8075   -1.3432   -1.8510 O   0  0  0  0  0  0  0  0  0  0  0  0
    7.9771   -0.8241   -1.2051 C   0  0  0  0  0  0  0  0  0  0  0  0
    7.9385   -0.8556    0.2588 N   0  0  0  0  0  0  0  0  0  0  0  0
    6.8211   -0.0132    0.6936 C   0  0  0  0  0  0  0  0  0  0  0  0
    7.8727   -2.2297    0.7911 C   0  0  0  0  0  0  0  0  0  0  0  0
    8.3934   -2.5024    2.1770 C   0  0  0  0  0  0  0  0  0  0  0  0
    9.1525   -2.9987    0.9826 C   0  0  0  0  0  0  0  0  0  0  0  0
   -0.9519    0.1341    2.3789 H   0  0  0  0  0  0  0  0  0  0  0  0
   -2.2201   -1.6996    3.4211 H   0  0  0  0  0  0  0  0  0  0  0  0
   -3.4899   -3.3008    2.0161 H   0  0  0  0  0  0  0  0  0  0  0  0
   -3.4822   -3.0561   -0.4532 H   0  0  0  0  0  0  0  0  0  0  0  0
   -2.2191   -1.2300   -1.5180 H   0  0  0  0  0  0  0  0  0  0  0  0
   -0.7138    1.5910    0.3369 H   0  0  0  0  0  0  0  0  0  0  0  0
   -1.2282    1.0512   -1.2039 H   0  0  0  0  0  0  0  0  0  0  0  0
    2.1102    0.5379    2.2470 H   0  0  0  0  0  0  0  0  0  0  0  0
    2.4236    2.1032    1.4511 H   0  0  0  0  0  0  0  0  0  0  0  0
    0.7877    1.5705    1.7427 H   0  0  0  0  0  0  0  0  0  0  0  0
    4.3190    0.7377    1.3414 H   0  0  0  0  0  0  0  0  0  0  0  0
    4.6074   -1.0451   -4.2186 H   0  0  0  0  0  0  0  0  0  0  0  0
    5.3475   -2.4885   -3.4871 H   0  0  0  0  0  0  0  0  0  0  0  0
    3.6042   -2.3812   -3.5984 H   0  0  0  0  0  0  0  0  0  0  0  0
    8.8288   -1.4147   -1.5629 H   0  0  0  0  0  0  0  0  0  0  0  0
    8.1551    0.1977   -1.5675 H   0  0  0  0  0  0  0  0  0  0  0  0
    7.1113    1.0396    0.5824 H   0  0  0  0  0  0  0  0  0  0  0  0
    6.6257   -0.1701    1.7619 H   0  0  0  0  0  0  0  0  0  0  0  0
    7.0069   -2.8143    0.4810 H   0  0  0  0  0  0  0  0  0  0  0  0
    7.8635   -3.2293    2.7809 H   0  0  0  0  0  0  0  0  0  0  0  0
    8.8215   -1.6819    2.7406 H   0  0  0  0  0  0  0  0  0  0  0  0
   10.0905   -2.5119    0.7428 H   0  0  0  0  0  0  0  0  0  0  0  0
    9.1372   -4.0618    0.7741 H   0  0  0  0  0  0  0  0  0  0  0  0
  1  2  2  0
  2  3  1  0
  3  4  2  0
  4  5  1  0
  5  6  2  0
  6  7  1  0
  7  8  1  0
  8  9  1  0
  9 10  1  0
  9 11  2  0
  8 12  2  0
 12 13  1  0
 12 14  1  0
 14 15  2  0
 14 16  1  0
 16 17  2  0
 17 18  1  0
 18 19  2  0
 19 20  1  0
 18 21  1  0
 21 22  1  0
 22 23  1  0
 23 24  1  0
 23 25  1  0
 25 26  1  0
 26 27  1  0
  6  1  1  0
 15 10  1  0
 19 15  1  0
 24 17  1  0
 27 25  1  0
  1 28  1  0
  2 29  1  0
  3 30  1  0
  4 31  1  0
  5 32  1  0
  7 33  1  0
  7 34  1  0
 13 35  1  0
 13 36  1  0
 13 37  1  0
 16 38  1  0
 20 39  1  0
 20 40  1  0
 20 41  1  0
 22 42  1  0
 22 43  1  0
 24 44  1  0
 24 45  1  0
 25 46  1  0
 26 47  1  0
 26 48  1  0
 27 49  1  0
 27 50  1  0
M  END
>  <mol_id>  (35) 
OSSM_359540

>  <drugclip_rank>  (35) 
35

>  <conformer>  (35) 
4

>  <align_rmsd>  (35) 
0.62

$$$$
OSSM_029404
     RDKit          3D

 53 56  0  0  0  0  0  0  0  0999 V2000
   -1.6920   -1.9228    0.3022 C   0  0  0  0  0  0  0  0  0  0  0  0
   -2.1825   -2.6979    1.3541 C   0  0  0  0  0  0  0  0  0  0  0  0
   -2.5283   -2.0974    2.5622 C   0  0  0  0  0  0  0  0  0  0  0  0
   -2.3771   -0.7225    2.7224 C   0  0  0  0  0  0  0  0  0  0  0  0
   -1.8841    0.0524    1.6715 C   0  0  0  0  0  0  0  0  0  0  0  0
   -1.5316   -0.5374    0.4483 C   0  0  0  0  0  0  0  0  0  0  0  0
   -1.0114    0.3083   -0.6990 C   0  0  0  0  0  0  0  0  0  0  0  0
    0.4726    0.1360   -0.9635 C   0  0  0  0  0  0  0  0  0  0  0  0
    0.7781   -0.8731   -2.0176 C   0  0  0  0  0  0  0  0  0  0  0  0
    2.1083   -1.1014   -2.3140 O   0  0  0  0  0  0  0  0  0  0  0  0
   -0.1026   -1.4792   -2.6186 O   0  0  0  0  0  0  0  0  0  0  0  0
    1.4584    0.8460   -0.3685 C   0  0  0  0  0  0  0  0  0  0  0  0
    1.2130    1.9134    0.6688 C   0  0  0  0  0  0  0  0  0  0  0  0
    2.8672    0.5817   -0.7366 C   0  0  0  0  0  0  0  0  0  0  0  0
    3.1527   -0.3770   -1.7103 C   0  0  0  0  0  0  0  0  0  0  0  0
    3.9552    1.2468   -0.1515 C   0  0  0  0  0  0  0  0  0  0  0  0
    5.2776    0.9611   -0.5305 C   0  0  0  0  0  0  0  0  0  0  0  0
    5.5177    0.0185   -1.5317 C   0  0  0  0  0  0  0  0  0  0  0  0
    4.4606   -0.6708   -2.1365 C   0  0  0  0  0  0  0  0  0  0  0  0
    4.7199   -1.7348   -3.1647 C   0  0  0  0  0  0  0  0  0  0  0  0
    6.7964   -0.3125   -1.9016 O   0  0  0  0  0  0  0  0  0  0  0  0
    7.7772    0.6750   -1.5648 C   0  0  0  0  0  0  0  0  0  0  0  0
    7.7313    1.1302   -0.1857 N   0  0  0  0  0  0  0  0  0  0  0  0
    6.4230    1.7015    0.1064 C   0  0  0  0  0  0  0  0  0  0  0  0
    8.2462    0.1833    0.8151 C   0  0  0  0  0  0  0  0  0  0  0  0
    7.5294   -1.1731    1.0438 C   0  0  0  0  0  0  0  0  0  0  0  0
    7.7913   -2.0752   -0.0329 O   0  0  0  0  0  0  0  0  0  0  0  0
    8.0534   -1.8424    2.3124 C   0  0  0  0  0  0  0  0  0  0  0  0
   -1.4546   -2.4094   -0.6438 H   0  0  0  0  0  0  0  0  0  0  0  0
   -2.3085   -3.7669    1.2222 H   0  0  0  0  0  0  0  0  0  0  0  0
   -2.9255   -2.7017    3.3741 H   0  0  0  0  0  0  0  0  0  0  0  0
   -2.6621   -0.2471    3.6579 H   0  0  0  0  0  0  0  0  0  0  0  0
   -1.7976    1.1273    1.8105 H   0  0  0  0  0  0  0  0  0  0  0  0
   -1.6067    0.0833   -1.5931 H   0  0  0  0  0  0  0  0  0  0  0  0
   -1.2428    1.3649   -0.5160 H   0  0  0  0  0  0  0  0  0  0  0  0
    1.6165    2.8760    0.3293 H   0  0  0  0  0  0  0  0  0  0  0  0
    1.6841    1.6445    1.6200 H   0  0  0  0  0  0  0  0  0  0  0  0
    0.1577    2.0899    0.8829 H   0  0  0  0  0  0  0  0  0  0  0  0
    3.8000    1.9953    0.6235 H   0  0  0  0  0  0  0  0  0  0  0  0
    3.8938   -1.8126   -3.8817 H   0  0  0  0  0  0  0  0  0  0  0  0
    4.8527   -2.7025   -2.6709 H   0  0  0  0  0  0  0  0  0  0  0  0
    5.6155   -1.5125   -3.7518 H   0  0  0  0  0  0  0  0  0  0  0  0
    7.6608    1.5272   -2.2512 H   0  0  0  0  0  0  0  0  0  0  0  0
    8.7628    0.2504   -1.7945 H   0  0  0  0  0  0  0  0  0  0  0  0
    6.2666    1.8012    1.1880 H   0  0  0  0  0  0  0  0  0  0  0  0
    6.4095    2.7211   -0.2998 H   0  0  0  0  0  0  0  0  0  0  0  0
    8.2842    0.7221    1.7729 H   0  0  0  0  0  0  0  0  0  0  0  0
    9.2963   -0.0183    0.5551 H   0  0  0  0  0  0  0  0  0  0  0  0
    6.4449   -1.0473    1.1457 H   0  0  0  0  0  0  0  0  0  0  0  0
    7.3106   -1.7256   -0.8102 H   0  0  0  0  0  0  0  0  0  0  0  0
    9.1366   -1.9974    2.2530 H   0  0  0  0  0  0  0  0  0  0  0  0
    7.5998   -2.8304    2.4399 H   0  0  0  0  0  0  0  0  0  0  0  0
    7.8362   -1.2400    3.2002 H   0  0  0  0  0  0  0  0  0  0  0  0
  1  2  2  0
  2  3  1  0
  3  4  2  0
  4  5  1  0
  5  6  2  0
  6  7  1  0
  7  8  1  0
  8  9  1  0
  9 10  1  0
  9 11  2  0
  8 12  2  0
 12 13  1  0
 12 14  1  0
 14 15  2  0
 14 16  1  0
 16 17  2  0
 17 18  1  0
 18 19  2  0
 19 20  1  0
 18 21  1  0
 21 22  1  0
 22 23  1  0
 23 24  1  0
 23 25  1  0
 25 26  1  0
 26 27  1  0
 26 28  1  0
  6  1  1  0
 15 10  1  0
 19 15  1  0
 24 17  1  0
  1 29  1  0
  2 30  1  0
  3 31  1  0
  4 32  1  0
  5 33  1  0
  7 34  1  0
  7 35  1  0
 13 36  1  0
 13 37  1  0
 13 38  1  0
 16 39  1  0
 20 40  1  0
 20 41  1  0
 20 42  1  0
 22 43  1  0
 22 44  1  0
 24 45  1  0
 24 46  1  0
 25 47  1  0
 25 48  1  0
 26 49  1  0
 27 50  1  0
 28 51  1  0
 28 52  1  0
 28 53  1  0
M  END
>  <mol_id>  (36) 
OSSM_029404

>  <drugclip_rank>  (36) 
36

>  <conformer>  (36) 
16

>  <align_rmsd>  (36) 
1.075

$$$$
MCULE-7606492205
     RDKit          3D

 56 58  0  0  0  0  0  0  0  0999 V2000
    6.6897   -2.4362   -1.8467 O   0  0  0  0  0  0  0  0  0  0  0  0
    6.0523   -3.3627   -0.9693 C   0  0  0  0  0  0  0  0  0  0  0  0
    5.0359   -2.6403   -0.0903 C   0  0  0  0  0  0  0  0  0  0  0  0
    4.0169   -2.1204   -0.9469 O   0  0  0  0  0  0  0  0  0  0  0  0
    2.9898   -1.4082   -0.3690 C   0  0  0  0  0  0  0  0  0  0  0  0
    2.8095   -1.1438    0.9374 C   0  0  0  0  0  0  0  0  0  0  0  0
    1.7529   -0.4204    1.4981 N   0  0  0  0  0  0  0  0  0  0  0  0
    0.7638    0.1023    0.6333 C   0  0  0  0  0  0  0  0  0  0  0  0
    0.8368   -0.0833   -0.6992 C   0  0  0  0  0  0  0  0  0  0  0  0
    1.9471   -0.8602   -1.2919 C   0  0  0  0  0  0  0  0  0  0  0  0
    1.9887   -1.0324   -2.5077 O   0  0  0  0  0  0  0  0  0  0  0  0
   -0.4029    0.9390    1.1675 C   0  0  0  0  0  0  0  0  0  0  0  0
   -1.3236    0.2135    2.0645 N   0  0  0  0  0  0  0  0  0  0  0  0
   -2.3450    1.1355    2.6174 C   0  0  0  0  0  0  0  0  0  0  0  0
   -3.6810    1.2524    1.8285 C   0  0  0  0  0  0  0  0  0  0  0  0
   -3.5306    0.8969    0.4177 N   0  0  0  0  0  0  0  0  0  0  0  0
   -3.0169   -0.4714    0.2617 C   0  0  0  0  0  0  0  0  0  0  0  0
   -2.0163   -0.8932    1.3726 C   0  0  0  0  0  0  0  0  0  0  0  0
   -4.6765    1.2196   -0.4354 C   0  0  0  0  0  0  0  0  0  0  0  0
   -5.9837    0.5212   -0.1246 C   0  0  0  0  0  0  0  0  0  0  0  0
   -6.3343   -0.6673   -0.7830 C   0  0  0  0  0  0  0  0  0  0  0  0
   -7.5412   -1.3092   -0.4995 C   0  0  0  0  0  0  0  0  0  0  0  0
   -8.4148   -0.7687    0.4414 C   0  0  0  0  0  0  0  0  0  0  0  0
   -8.0844    0.4152    1.0973 C   0  0  0  0  0  0  0  0  0  0  0  0
   -6.8777    1.0578    0.8145 C   0  0  0  0  0  0  0  0  0  0  0  0
    1.6947   -0.2643    2.9682 C   0  0  0  0  0  0  0  0  0  0  0  0
    1.1929   -1.5370    3.6366 C   0  0  0  0  0  0  0  0  0  0  0  0
    5.9700   -1.9837   -2.3285 H   0  0  0  0  0  0  0  0  0  0  0  0
    5.5683   -4.1268   -1.5858 H   0  0  0  0  0  0  0  0  0  0  0  0
    6.8246   -3.8362   -0.3566 H   0  0  0  0  0  0  0  0  0  0  0  0
    5.5283   -1.8136    0.4346 H   0  0  0  0  0  0  0  0  0  0  0  0
    4.6024   -3.3482    0.6247 H   0  0  0  0  0  0  0  0  0  0  0  0
    3.5115   -1.4978    1.6842 H   0  0  0  0  0  0  0  0  0  0  0  0
    0.1085    0.3085   -1.3973 H   0  0  0  0  0  0  0  0  0  0  0  0
   -0.9453    1.4041    0.3347 H   0  0  0  0  0  0  0  0  0  0  0  0
    0.0431    1.7824    1.7124 H   0  0  0  0  0  0  0  0  0  0  0  0
   -1.9172    2.1368    2.7568 H   0  0  0  0  0  0  0  0  0  0  0  0
   -2.5880    0.7855    3.6290 H   0  0  0  0  0  0  0  0  0  0  0  0
   -4.4215    0.5988    2.3070 H   0  0  0  0  0  0  0  0  0  0  0  0
   -4.0417    2.2833    1.9271 H   0  0  0  0  0  0  0  0  0  0  0  0
   -2.5115   -0.5348   -0.7092 H   0  0  0  0  0  0  0  0  0  0  0  0
   -3.8228   -1.2126    0.2601 H   0  0  0  0  0  0  0  0  0  0  0  0
   -1.3011   -1.6198    0.9696 H   0  0  0  0  0  0  0  0  0  0  0  0
   -2.5748   -1.4494    2.1387 H   0  0  0  0  0  0  0  0  0  0  0  0
   -4.4085    1.0238   -1.4825 H   0  0  0  0  0  0  0  0  0  0  0  0
   -4.8467    2.3044   -0.4045 H   0  0  0  0  0  0  0  0  0  0  0  0
   -5.6658   -1.1001   -1.5241 H   0  0  0  0  0  0  0  0  0  0  0  0
   -7.8002   -2.2303   -1.0152 H   0  0  0  0  0  0  0  0  0  0  0  0
   -9.3547   -1.2682    0.6608 H   0  0  0  0  0  0  0  0  0  0  0  0
   -8.7679    0.8402    1.8276 H   0  0  0  0  0  0  0  0  0  0  0  0
   -6.6381    1.9846    1.3305 H   0  0  0  0  0  0  0  0  0  0  0  0
    2.6994   -0.0347    3.3467 H   0  0  0  0  0  0  0  0  0  0  0  0
    1.0770    0.5856    3.2718 H   0  0  0  0  0  0  0  0  0  0  0  0
    1.1240   -1.3924    4.7193 H   0  0  0  0  0  0  0  0  0  0  0  0
    1.8727   -2.3756    3.4531 H   0  0  0  0  0  0  0  0  0  0  0  0
    0.2056   -1.8268    3.2671 H   0  0  0  0  0  0  0  0  0  0  0  0
  1  2  1  0
  2  3  1  0
  3  4  1  0
  4  5  1  0
  5  6  2  0
  6  7  1  0
  7  8  1  0
  8  9  2  0
  9 10  1  0
 10 11  2  0
  8 12  1  0
 12 13  1  0
 13 14  1  0
 14 15  1  0
 15 16  1  0
 16 17  1  0
 17 18  1  0
 16 19  1  0
 19 20  1  0
 20 21  2  0
 21 22  1  0
 22 23  2  0
 23 24  1  0
 24 25  2  0
  7 26  1  0
 26 27  1  0
 10  5  1  0
 18 13  1  0
 25 20  1  0
  1 28  1  0
  2 29  1  0
  2 30  1  0
  3 31  1  0
  3 32  1  0
  6 33  1  0
  9 34  1  0
 12 35  1  0
 12 36  1  0
 14 37  1  0
 14 38  1  0
 15 39  1  0
 15 40  1  0
 17 41  1  0
 17 42  1  0
 18 43  1  0
 18 44  1  0
 19 45  1  0
 19 46  1  0
 21 47  1  0
 22 48  1  0
 23 49  1  0
 24 50  1  0
 25 51  1  0
 26 52  1  0
 26 53  1  0
 27 54  1  0
 27 55  1  0
 27 56  1  0
M  END
>  <mol_id>  (37) 
MCULE-7606492205

>  <drugclip_rank>  (37) 
37

>  <conformer>  (37) 
17

>  <align_rmsd>  (37) 
0.634

$$$$
MCULE-9049988220
     RDKit          3D

 64 66  0  0  0  0  0  0  0  0999 V2000
    5.0117   -2.6281   -3.9170 N   0  0  0  0  0  0  0  0  0  0  0  0
    3.6859   -2.6698   -4.5376 C   0  0  0  0  0  0  0  0  0  0  0  0
    3.0157   -4.0296   -4.3662 C   0  0  0  0  0  0  0  0  0  0  0  0
    3.4766   -5.0703   -5.3844 C   0  0  0  0  0  0  0  0  0  0  0  0
    4.9716   -5.3781   -5.3483 C   0  0  0  0  0  0  0  0  0  0  0  0
    5.8422   -4.1908   -5.7615 C   0  0  0  0  0  0  0  0  0  0  0  0
    6.1468   -3.2212   -4.6196 C   0  0  0  0  0  0  0  0  0  0  0  0
    5.2909   -1.9764   -2.7121 C   0  0  0  0  0  0  0  0  0  0  0  0
    6.4438   -1.8793   -2.2797 O   0  0  0  0  0  0  0  0  0  0  0  0
    4.1391   -1.3460   -1.9272 C   0  0  0  0  0  0  0  0  0  0  0  0
    3.2677   -2.3523   -1.4188 O   0  0  0  0  0  0  0  0  0  0  0  0
    2.2075   -1.7822   -0.7416 C   0  0  0  0  0  0  0  0  0  0  0  0
    2.1299   -1.7837    0.5957 C   0  0  0  0  0  0  0  0  0  0  0  0
    1.0804   -1.2655    1.3549 N   0  0  0  0  0  0  0  0  0  0  0  0
   -0.0341   -0.7098    0.6745 C   0  0  0  0  0  0  0  0  0  0  0  0
   -0.0750   -0.6854   -0.6754 C   0  0  0  0  0  0  0  0  0  0  0  0
    1.0489   -1.2081   -1.4823 C   0  0  0  0  0  0  0  0  0  0  0  0
    1.0135   -1.1575   -2.7094 O   0  0  0  0  0  0  0  0  0  0  0  0
   -1.2250   -0.1767    1.4860 C   0  0  0  0  0  0  0  0  0  0  0  0
   -2.1728    0.7056    0.7788 N   0  0  0  0  0  0  0  0  0  0  0  0
   -3.4963    0.7287    1.4264 C   0  0  0  0  0  0  0  0  0  0  0  0
   -3.8284    2.0412    2.1373 C   0  0  0  0  0  0  0  0  0  0  0  0
   -3.7357    3.2573    1.1988 C   0  0  0  0  0  0  0  0  0  0  0  0
   -2.6879    3.0286    0.0959 C   0  0  0  0  0  0  0  0  0  0  0  0
   -1.6085    2.0472    0.5558 C   0  0  0  0  0  0  0  0  0  0  0  0
   -5.1000    3.6526    0.6171 C   0  0  0  0  0  0  0  0  0  0  0  0
   -5.7431    2.5627   -0.0252 O   0  0  0  0  0  0  0  0  0  0  0  0
    1.1916   -1.2946    2.8296 C   0  0  0  0  0  0  0  0  0  0  0  0
    1.9025   -0.0469    3.3357 C   0  0  0  0  0  0  0  0  0  0  0  0
    3.7777   -2.3869   -5.5926 H   0  0  0  0  0  0  0  0  0  0  0  0
    3.0431   -1.9115   -4.0921 H   0  0  0  0  0  0  0  0  0  0  0  0
    1.9345   -3.8997   -4.4970 H   0  0  0  0  0  0  0  0  0  0  0  0
    3.1692   -4.4116   -3.3488 H   0  0  0  0  0  0  0  0  0  0  0  0
    2.9237   -6.0030   -5.2069 H   0  0  0  0  0  0  0  0  0  0  0  0
    3.1963   -4.7358   -6.3927 H   0  0  0  0  0  0  0  0  0  0  0  0
    5.1576   -6.2001   -6.0546 H   0  0  0  0  0  0  0  0  0  0  0  0
    5.2634   -5.7472   -4.3543 H   0  0  0  0  0  0  0  0  0  0  0  0
    5.3961   -3.6605   -6.6129 H   0  0  0  0  0  0  0  0  0  0  0  0
    6.8026   -4.5804   -6.1219 H   0  0  0  0  0  0  0  0  0  0  0  0
    6.7435   -2.3890   -5.0146 H   0  0  0  0  0  0  0  0  0  0  0  0
    6.7790   -3.7326   -3.8815 H   0  0  0  0  0  0  0  0  0  0  0  0
    4.5830   -0.7936   -1.0886 H   0  0  0  0  0  0  0  0  0  0  0  0
    3.6264   -0.6177   -2.5656 H   0  0  0  0  0  0  0  0  0  0  0  0
    2.9405   -2.2127    1.1814 H   0  0  0  0  0  0  0  0  0  0  0  0
   -0.9170   -0.3021   -1.2377 H   0  0  0  0  0  0  0  0  0  0  0  0
   -0.8783    0.3389    2.3911 H   0  0  0  0  0  0  0  0  0  0  0  0
   -1.7543   -1.0821    1.8227 H   0  0  0  0  0  0  0  0  0  0  0  0
   -3.6199   -0.0951    2.1413 H   0  0  0  0  0  0  0  0  0  0  0  0
   -4.2419    0.5446    0.6437 H   0  0  0  0  0  0  0  0  0  0  0  0
   -4.8217    1.9806    2.5982 H   0  0  0  0  0  0  0  0  0  0  0  0
   -3.1203    2.1763    2.9663 H   0  0  0  0  0  0  0  0  0  0  0  0
   -3.3980    4.1070    1.8062 H   0  0  0  0  0  0  0  0  0  0  0  0
   -3.1492    2.6486   -0.8243 H   0  0  0  0  0  0  0  0  0  0  0  0
   -2.2289    3.9890   -0.1710 H   0  0  0  0  0  0  0  0  0  0  0  0
   -1.1373    2.4388    1.4673 H   0  0  0  0  0  0  0  0  0  0  0  0
   -0.8294    2.0020   -0.2136 H   0  0  0  0  0  0  0  0  0  0  0  0
   -5.0043    4.4784   -0.0957 H   0  0  0  0  0  0  0  0  0  0  0  0
   -5.7632    3.9889    1.4224 H   0  0  0  0  0  0  0  0  0  0  0  0
   -5.2847    2.3992   -0.8686 H   0  0  0  0  0  0  0  0  0  0  0  0
    0.2085   -1.3900    3.3032 H   0  0  0  0  0  0  0  0  0  0  0  0
    1.7536   -2.1831    3.1453 H   0  0  0  0  0  0  0  0  0  0  0  0
    1.3760    0.8654    3.0411 H   0  0  0  0  0  0  0  0  0  0  0  0
    1.9739   -0.0652    4.4289 H   0  0  0  0  0  0  0  0  0  0  0  0
    2.9179    0.0193    2.9269 H   0  0  0  0  0  0  0  0  0  0  0  0
  1  2  1  0
  2  3  1  0
  3  4  1  0
  4  5  1  0
  5  6  1  0
  6  7  1  0
  1  8  1  0
  8  9  2  0
  8 10  1  0
 10 11  1  0
 11 12  1  0
 12 13  2  0
 13 14  1  0
 14 15  1  0
 15 16  2  0
 16 17  1  0
 17 18  2  0
 15 19  1  0
 19 20  1  0
 20 21  1  0
 21 22  1  0
 22 23  1  0
 23 24  1  0
 24 25  1  0
 23 26  1  0
 26 27  1  0
 14 28  1  0
 28 29  1  0
  7  1  1  0
 17 12  1  0
 25 20  1  0
  2 30  1  0
  2 31  1  0
  3 32  1  0
  3 33  1  0
  4 34  1  0
  4 35  1  0
  5 36  1  0
  5 37  1  0
  6 38  1  0
  6 39  1  0
  7 40  1  0
  7 41  1  0
 10 42  1  0
 10 43  1  0
 13 44  1  0
 16 45  1  0
 19 46  1  0
 19 47  1  0
 21 48  1  0
 21 49  1  0
 22 50  1  0
 22 51  1  0
 23 52  1  0
 24 53  1  0
 24 54  1  0
 25 55  1  0
 25 56  1  0
 26 57  1  0
 26 58  1  0
 27 59  1  0
 28 60  1  0
 28 61  1  0
 29 62  1  0
 29 63  1  0
 29 64  1  0
M  END
>  <mol_id>  (38) 
MCULE-9049988220

>  <drugclip_rank>  (38) 
38

>  <conformer>  (38) 
36

>  <align_rmsd>  (38) 
0.886

$$$$
STK085425
     RDKit          3D

 61 63  0  0  0  0  0  0  0  0999 V2000
    6.2727   -2.1184   -3.8612 C   0  0  0  0  0  0  0  0  0  0  0  0
    6.5496   -1.7667   -2.5138 O   0  0  0  0  0  0  0  0  0  0  0  0
    5.6121   -1.0212   -1.8416 C   0  0  0  0  0  0  0  0  0  0  0  0
    5.9621   -0.6189   -0.5371 C   0  0  0  0  0  0  0  0  0  0  0  0
    7.1995   -1.0166   -0.0940 O   0  0  0  0  0  0  0  0  0  0  0  0
    7.5941   -0.6128    1.2089 C   0  0  0  0  0  0  0  0  0  0  0  0
    5.0595    0.1397    0.2149 C   0  0  0  0  0  0  0  0  0  0  0  0
    3.8188    0.4975   -0.3181 C   0  0  0  0  0  0  0  0  0  0  0  0
    3.4620    0.1042   -1.6113 C   0  0  0  0  0  0  0  0  0  0  0  0
    4.3644   -0.6600   -2.3663 C   0  0  0  0  0  0  0  0  0  0  0  0
    2.1089    0.4663   -2.1719 C   0  0  0  0  0  0  0  0  0  0  0  0
    1.0578   -0.6012   -1.8409 C   0  0  0  0  0  0  0  0  0  0  0  0
   -0.2833   -0.2352   -2.3131 N   0  0  0  0  0  0  0  0  0  0  0  0
   -0.5380   -0.4311   -3.7332 C   0  0  0  0  0  0  0  0  0  0  0  0
   -1.1212    0.6580   -1.6403 C   0  0  0  0  0  0  0  0  0  0  0  0
   -2.0146    1.2641   -2.2347 O   0  0  0  0  0  0  0  0  0  0  0  0
   -0.9127    0.8389   -0.1301 C   0  0  0  0  0  0  0  0  0  0  0  0
   -1.6692    2.0619    0.4128 C   0  0  0  0  0  0  0  0  0  0  0  0
   -3.1695    1.8148    0.5934 C   0  0  0  0  0  0  0  0  0  0  0  0
   -1.3154   -0.4250    0.6420 C   0  0  0  0  0  0  0  0  0  0  0  0
   -2.8325   -0.5673    0.7834 C   0  0  0  0  0  0  0  0  0  0  0  0
   -3.3939    0.6252    1.4176 N   0  0  0  0  0  0  0  0  0  0  0  0
   -4.7975    0.4609    1.8287 C   0  0  0  0  0  0  0  0  0  0  0  0
   -5.8086    0.1554    0.7432 C   0  0  0  0  0  0  0  0  0  0  0  0
   -6.4464    1.1908    0.0443 C   0  0  0  0  0  0  0  0  0  0  0  0
   -7.3791    0.9058   -0.9547 C   0  0  0  0  0  0  0  0  0  0  0  0
   -7.6891   -0.4170   -1.2638 C   0  0  0  0  0  0  0  0  0  0  0  0
   -7.0677   -1.4559   -0.5742 C   0  0  0  0  0  0  0  0  0  0  0  0
   -6.1339   -1.1720    0.4239 C   0  0  0  0  0  0  0  0  0  0  0  0
    6.1370   -1.2280   -4.4841 H   0  0  0  0  0  0  0  0  0  0  0  0
    7.1375   -2.6656   -4.2487 H   0  0  0  0  0  0  0  0  0  0  0  0
    5.4046   -2.7827   -3.9243 H   0  0  0  0  0  0  0  0  0  0  0  0
    6.9311   -1.0353    1.9710 H   0  0  0  0  0  0  0  0  0  0  0  0
    7.6440    0.4783    1.2870 H   0  0  0  0  0  0  0  0  0  0  0  0
    8.5997   -1.0042    1.3902 H   0  0  0  0  0  0  0  0  0  0  0  0
    5.2909    0.4687    1.2224 H   0  0  0  0  0  0  0  0  0  0  0  0
    3.1337    1.0868    0.2882 H   0  0  0  0  0  0  0  0  0  0  0  0
    4.0702   -0.9653   -3.3654 H   0  0  0  0  0  0  0  0  0  0  0  0
    1.8010    1.4437   -1.7795 H   0  0  0  0  0  0  0  0  0  0  0  0
    2.1876    0.6003   -3.2580 H   0  0  0  0  0  0  0  0  0  0  0  0
    1.3263   -1.5633   -2.2946 H   0  0  0  0  0  0  0  0  0  0  0  0
    1.0363   -0.7751   -0.7620 H   0  0  0  0  0  0  0  0  0  0  0  0
   -1.6094   -0.3791   -3.9490 H   0  0  0  0  0  0  0  0  0  0  0  0
   -0.1717   -1.4152   -4.0389 H   0  0  0  0  0  0  0  0  0  0  0  0
   -0.0244    0.3507   -4.3000 H   0  0  0  0  0  0  0  0  0  0  0  0
    0.1524    1.0413    0.0293 H   0  0  0  0  0  0  0  0  0  0  0  0
   -1.5190    2.9294   -0.2413 H   0  0  0  0  0  0  0  0  0  0  0  0
   -1.2400    2.3310    1.3876 H   0  0  0  0  0  0  0  0  0  0  0  0
   -3.6582    1.7262   -0.3826 H   0  0  0  0  0  0  0  0  0  0  0  0
   -3.5950    2.6972    1.0870 H   0  0  0  0  0  0  0  0  0  0  0  0
   -0.9274   -1.3311    0.1649 H   0  0  0  0  0  0  0  0  0  0  0  0
   -0.8666   -0.3833    1.6434 H   0  0  0  0  0  0  0  0  0  0  0  0
   -3.2785   -0.7531   -0.2014 H   0  0  0  0  0  0  0  0  0  0  0  0
   -3.0281   -1.4504    1.4039 H   0  0  0  0  0  0  0  0  0  0  0  0
   -5.1217    1.3605    2.3695 H   0  0  0  0  0  0  0  0  0  0  0  0
   -4.8481   -0.3323    2.5873 H   0  0  0  0  0  0  0  0  0  0  0  0
   -6.2145    2.2285    0.2723 H   0  0  0  0  0  0  0  0  0  0  0  0
   -7.8608    1.7173   -1.4939 H   0  0  0  0  0  0  0  0  0  0  0  0
   -8.4133   -0.6373   -2.0433 H   0  0  0  0  0  0  0  0  0  0  0  0
   -7.3085   -2.4879   -0.8147 H   0  0  0  0  0  0  0  0  0  0  0  0
   -5.6571   -1.9939    0.9533 H   0  0  0  0  0  0  0  0  0  0  0  0
  1  2  1  0
  2  3  1  0
  3  4  2  0
  4  5  1  0
  5  6  1  0
  4  7  1  0
  7  8  2  0
  8  9  1  0
  9 10  2  0
  9 11  1  0
 11 12  1  0
 12 13  1  0
 13 14  1  0
 13 15  1  0
 15 16  2  0
 15 17  1  0
 17 18  1  0
 18 19  1  0
 17 20  1  0
 20 21  1  0
 21 22  1  0
 22 23  1  0
 23 24  1  0
 24 25  2  0
 25 26  1  0
 26 27  2  0
 27 28  1  0
 28 29  2  0
 10  3  1  0
 22 19  1  0
 29 24  1  0
  1 30  1  0
  1 31  1  0
  1 32  1  0
  6 33  1  0
  6 34  1  0
  6 35  1  0
  7 36  1  0
  8 37  1  0
 10 38  1  0
 11 39  1  0
 11 40  1  0
 12 41  1  0
 12 42  1  0
 14 43  1  0
 14 44  1  0
 14 45  1  0
 17 46  1  0
 18 47  1  0
 18 48  1  0
 19 49  1  0
 19 50  1  0
 20 51  1  0
 20 52  1  0
 21 53  1  0
 21 54  1  0
 23 55  1  0
 23 56  1  0
 25 57  1  0
 26 58  1  0
 27 59  1  0
 28 60  1  0
 29 61  1  0
M  END
>  <mol_id>  (39) 
STK085425

>  <drugclip_rank>  (39) 
39

>  <conformer>  (39) 
2

>  <align_rmsd>  (39) 
0.465

$$$$
STK589147
     RDKit          3D

 53 56  0  0  0  0  0  0  0  0999 V2000
   -6.4682    0.0101    1.0860 C   0  0  0  0  0  0  0  0  0  0  0  0
   -7.3884    1.0022    0.7408 C   0  0  0  0  0  0  0  0  0  0  0  0
   -8.1851    0.8533   -0.3919 C   0  0  0  0  0  0  0  0  0  0  0  0
   -8.0642   -0.2889   -1.1790 C   0  0  0  0  0  0  0  0  0  0  0  0
   -7.1455   -1.2822   -0.8349 C   0  0  0  0  0  0  0  0  0  0  0  0
   -6.3356   -1.1455    0.3023 C   0  0  0  0  0  0  0  0  0  0  0  0
   -5.3233   -2.2159    0.6575 C   0  0  0  0  0  0  0  0  0  0  0  0
   -3.9610   -1.9823    0.0330 C   0  0  0  0  0  0  0  0  0  0  0  0
   -3.8360   -2.5531   -1.3386 C   0  0  0  0  0  0  0  0  0  0  0  0
   -2.6525   -2.3258   -2.0147 O   0  0  0  0  0  0  0  0  0  0  0  0
   -4.7303   -3.2127   -1.8582 O   0  0  0  0  0  0  0  0  0  0  0  0
   -2.9144   -1.3685    0.6332 C   0  0  0  0  0  0  0  0  0  0  0  0
   -2.9513   -0.8204    2.0383 C   0  0  0  0  0  0  0  0  0  0  0  0
   -1.6499   -1.1933   -0.1167 C   0  0  0  0  0  0  0  0  0  0  0  0
   -1.5555   -1.6737   -1.4225 C   0  0  0  0  0  0  0  0  0  0  0  0
   -0.5229   -0.5452    0.4099 C   0  0  0  0  0  0  0  0  0  0  0  0
    0.6506   -0.3840   -0.3470 C   0  0  0  0  0  0  0  0  0  0  0  0
    0.6977   -0.8610   -1.6590 C   0  0  0  0  0  0  0  0  0  0  0  0
   -0.3953   -1.5416   -2.2081 C   0  0  0  0  0  0  0  0  0  0  0  0
   -0.3594   -2.0543   -3.6218 C   0  0  0  0  0  0  0  0  0  0  0  0
    1.8130   -0.7066   -2.4384 O   0  0  0  0  0  0  0  0  0  0  0  0
    2.7872    0.2117   -1.9262 C   0  0  0  0  0  0  0  0  0  0  0  0
    3.0669    0.0327   -0.5006 N   0  0  0  0  0  0  0  0  0  0  0  0
    1.8342    0.3431    0.2304 C   0  0  0  0  0  0  0  0  0  0  0  0
    4.1652    0.8884   -0.0346 C   0  0  0  0  0  0  0  0  0  0  0  0
    5.5495    0.4233   -0.4981 C   0  0  0  0  0  0  0  0  0  0  0  0
    5.8898   -0.9860   -0.0297 C   0  0  0  0  0  0  0  0  0  0  0  0
    7.2205   -1.3063   -0.4229 O   0  0  0  0  0  0  0  0  0  0  0  0
   -5.8590    0.1504    1.9742 H   0  0  0  0  0  0  0  0  0  0  0  0
   -7.4826    1.8933    1.3562 H   0  0  0  0  0  0  0  0  0  0  0  0
   -8.8998    1.6263   -0.6610 H   0  0  0  0  0  0  0  0  0  0  0  0
   -8.6833   -0.4096   -2.0646 H   0  0  0  0  0  0  0  0  0  0  0  0
   -7.0646   -2.1658   -1.4663 H   0  0  0  0  0  0  0  0  0  0  0  0
   -5.2582   -2.2958    1.7485 H   0  0  0  0  0  0  0  0  0  0  0  0
   -5.7187   -3.1995    0.3699 H   0  0  0  0  0  0  0  0  0  0  0  0
   -3.8892   -1.0039    2.5636 H   0  0  0  0  0  0  0  0  0  0  0  0
   -2.1684   -1.2808    2.6516 H   0  0  0  0  0  0  0  0  0  0  0  0
   -2.8056    0.2654    2.0311 H   0  0  0  0  0  0  0  0  0  0  0  0
   -0.5319   -0.1447    1.4203 H   0  0  0  0  0  0  0  0  0  0  0  0
   -0.7527   -1.2935   -4.3027 H   0  0  0  0  0  0  0  0  0  0  0  0
   -0.9520   -2.9685   -3.7299 H   0  0  0  0  0  0  0  0  0  0  0  0
    0.6579   -2.3132   -3.9325 H   0  0  0  0  0  0  0  0  0  0  0  0
    3.6898    0.0204   -2.5147 H   0  0  0  0  0  0  0  0  0  0  0  0
    2.4652    1.2355   -2.1642 H   0  0  0  0  0  0  0  0  0  0  0  0
    1.6180    1.4201    0.2098 H   0  0  0  0  0  0  0  0  0  0  0  0
    1.9587    0.0406    1.2776 H   0  0  0  0  0  0  0  0  0  0  0  0
    4.0081    1.9295   -0.3461 H   0  0  0  0  0  0  0  0  0  0  0  0
    4.1790    0.8920    1.0636 H   0  0  0  0  0  0  0  0  0  0  0  0
    5.6464    0.4846   -1.5883 H   0  0  0  0  0  0  0  0  0  0  0  0
    6.3044    1.1181   -0.1078 H   0  0  0  0  0  0  0  0  0  0  0  0
    5.8374   -1.0565    1.0610 H   0  0  0  0  0  0  0  0  0  0  0  0
    5.2154   -1.7350   -0.4565 H   0  0  0  0  0  0  0  0  0  0  0  0
    7.2231   -1.3804   -1.3929 H   0  0  0  0  0  0  0  0  0  0  0  0
  1  2  2  0
  2  3  1  0
  3  4  2  0
  4  5  1  0
  5  6  2  0
  6  7  1  0
  7  8  1  0
  8  9  1  0
  9 10  1  0
  9 11  2  0
  8 12  2  0
 12 13  1  0
 12 14  1  0
 14 15  2  0
 14 16  1  0
 16 17  2  0
 17 18  1  0
 18 19  2  0
 19 20  1  0
 18 21  1  0
 21 22  1  0
 22 23  1  0
 23 24  1  0
 23 25  1  0
 25 26  1  0
 26 27  1  0
 27 28  1  0
  6  1  1  0
 15 10  1  0
 19 15  1  0
 24 17  1  0
  1 29  1  0
  2 30  1  0
  3 31  1  0
  4 32  1  0
  5 33  1  0
  7 34  1  0
  7 35  1  0
 13 36  1  0
 13 37  1  0
 13 38  1  0
 16 39  1  0
 20 40  1  0
 20 41  1  0
 20 42  1  0
 22 43  1  0
 22 44  1  0
 24 45  1  0
 24 46  1  0
 25 47  1  0
 25 48  1  0
 26 49  1  0
 26 50  1  0
 27 51  1  0
 27 52  1  0
 28 53  1  0
M  END
>  <mol_id>  (40) 
STK589147

>  <drugclip_rank>  (40) 
40

>  <conformer>  (40) 
12

>  <align_rmsd>  (40) 
0.364

$$$$
MCULE-6708544121
     RDKit          3D

 60 63  0  0  0  0  0  0  0  0999 V2000
   -3.3311   -1.2031    0.0481 N   0  0  0  0  0  0  0  0  0  0  0  0
   -4.0070   -2.4691   -0.2285 C   0  0  0  0  0  0  0  0  0  0  0  0
   -5.3694   -2.5298    0.4555 C   0  0  0  0  0  0  0  0  0  0  0  0
   -6.1974   -1.3115    0.1399 C   0  0  0  0  0  0  0  0  0  0  0  0
   -5.5689   -0.1032   -0.2088 C   0  0  0  0  0  0  0  0  0  0  0  0
   -6.3600    1.0246   -0.4783 C   0  0  0  0  0  0  0  0  0  0  0  0
   -7.7508    0.9566   -0.3850 C   0  0  0  0  0  0  0  0  0  0  0  0
   -8.3667   -0.2374   -0.0198 C   0  0  0  0  0  0  0  0  0  0  0  0
   -7.5942   -1.3668    0.2461 C   0  0  0  0  0  0  0  0  0  0  0  0
   -4.0657    0.0097   -0.3133 C   0  0  0  0  0  0  0  0  0  0  0  0
   -1.9523   -1.2218    0.2624 C   0  0  0  0  0  0  0  0  0  0  0  0
   -1.3169   -2.2759    0.3134 O   0  0  0  0  0  0  0  0  0  0  0  0
   -1.2531    0.1425    0.4222 C   0  0  0  0  0  0  0  0  0  0  0  0
    0.1276    0.1218    0.7413 O   0  0  0  0  0  0  0  0  0  0  0  0
    1.0471   -0.1848   -0.2352 C   0  0  0  0  0  0  0  0  0  0  0  0
    0.7962   -0.5792   -1.4941 C   0  0  0  0  0  0  0  0  0  0  0  0
    1.7422   -0.8789   -2.4456 O   0  0  0  0  0  0  0  0  0  0  0  0
    3.0832   -0.7770   -2.1099 C   0  0  0  0  0  0  0  0  0  0  0  0
    3.4883   -0.4188   -0.8835 C   0  0  0  0  0  0  0  0  0  0  0  0
    2.4885   -0.0631    0.1411 C   0  0  0  0  0  0  0  0  0  0  0  0
    2.8580    0.3302    1.2435 O   0  0  0  0  0  0  0  0  0  0  0  0
    4.0477   -1.1789   -3.2029 C   0  0  0  0  0  0  0  0  0  0  0  0
    4.2523   -0.2216   -4.2971 N   0  0  0  0  0  0  0  0  0  0  0  0
    3.0866   -0.0693   -5.1690 C   0  0  0  0  0  0  0  0  0  0  0  0
    3.3698    0.9196   -6.2977 C   0  0  0  0  0  0  0  0  0  0  0  0
    3.7199    2.3076   -5.7639 C   0  0  0  0  0  0  0  0  0  0  0  0
    4.1173    2.2798   -4.2891 C   0  0  0  0  0  0  0  0  0  0  0  0
    4.9281    1.0272   -3.9057 C   0  0  0  0  0  0  0  0  0  0  0  0
    6.3390    1.0864   -4.5367 C   0  0  0  0  0  0  0  0  0  0  0  0
    7.2706   -0.0214   -4.0615 C   0  0  0  0  0  0  0  0  0  0  0  0
   -3.4025   -3.3203    0.1018 H   0  0  0  0  0  0  0  0  0  0  0  0
   -4.1116   -2.5486   -1.3182 H   0  0  0  0  0  0  0  0  0  0  0  0
   -5.2384   -2.5815    1.5434 H   0  0  0  0  0  0  0  0  0  0  0  0
   -5.8902   -3.4386    0.1327 H   0  0  0  0  0  0  0  0  0  0  0  0
   -5.8964    1.9676   -0.7596 H   0  0  0  0  0  0  0  0  0  0  0  0
   -8.3543    1.8367   -0.5920 H   0  0  0  0  0  0  0  0  0  0  0  0
   -9.4500   -0.2890    0.0613 H   0  0  0  0  0  0  0  0  0  0  0  0
   -8.0870   -2.2919    0.5375 H   0  0  0  0  0  0  0  0  0  0  0  0
   -3.7973    0.2447   -1.3513 H   0  0  0  0  0  0  0  0  0  0  0  0
   -3.7324    0.8354    0.3240 H   0  0  0  0  0  0  0  0  0  0  0  0
   -1.4233    0.7573   -0.4696 H   0  0  0  0  0  0  0  0  0  0  0  0
   -1.7382    0.6472    1.2655 H   0  0  0  0  0  0  0  0  0  0  0  0
   -0.1860   -0.7286   -1.9172 H   0  0  0  0  0  0  0  0  0  0  0  0
    4.5285   -0.3557   -0.5926 H   0  0  0  0  0  0  0  0  0  0  0  0
    5.0239   -1.4121   -2.7582 H   0  0  0  0  0  0  0  0  0  0  0  0
    3.7117   -2.1359   -3.6245 H   0  0  0  0  0  0  0  0  0  0  0  0
    2.2058    0.2778   -4.6176 H   0  0  0  0  0  0  0  0  0  0  0  0
    2.8309   -1.0389   -5.6122 H   0  0  0  0  0  0  0  0  0  0  0  0
    2.5020    0.9884   -6.9641 H   0  0  0  0  0  0  0  0  0  0  0  0
    4.1981    0.5446   -6.9130 H   0  0  0  0  0  0  0  0  0  0  0  0
    4.5310    2.7323   -6.3674 H   0  0  0  0  0  0  0  0  0  0  0  0
    2.8638    2.9817   -5.8876 H   0  0  0  0  0  0  0  0  0  0  0  0
    3.2057    2.3106   -3.6760 H   0  0  0  0  0  0  0  0  0  0  0  0
    4.6747    3.1913   -4.0425 H   0  0  0  0  0  0  0  0  0  0  0  0
    5.0680    1.0705   -2.8183 H   0  0  0  0  0  0  0  0  0  0  0  0
    6.2804    1.0478   -5.6313 H   0  0  0  0  0  0  0  0  0  0  0  0
    6.8007    2.0493   -4.2836 H   0  0  0  0  0  0  0  0  0  0  0  0
    8.2754    0.1345   -4.4673 H   0  0  0  0  0  0  0  0  0  0  0  0
    6.9277   -1.0049   -4.3965 H   0  0  0  0  0  0  0  0  0  0  0  0
    7.3449   -0.0307   -2.9693 H   0  0  0  0  0  0  0  0  0  0  0  0
  1  2  1  0
  2  3  1  0
  3  4  1  0
  4  5  2  0
  5  6  1  0
  6  7  2  0
  7  8  1  0
  8  9  2  0
  5 10  1  0
  1 11  1  0
 11 12  2  0
 11 13  1  0
 13 14  1  0
 14 15  1  0
 15 16  2  0
 16 17  1  0
 17 18  1  0
 18 19  2  0
 19 20  1  0
 20 21  2  0
 18 22  1  0
 22 23  1  0
 23 24  1  0
 24 25  1  0
 25 26  1  0
 26 27  1  0
 27 28  1  0
 28 29  1  0
 29 30  1  0
 10  1  1  0
 20 15  1  0
 28 23  1  0
  9  4  1  0
  2 31  1  0
  2 32  1  0
  3 33  1  0
  3 34  1  0
  6 35  1  0
  7 36  1  0
  8 37  1  0
  9 38  1  0
 10 39  1  0
 10 40  1  0
 13 41  1  0
 13 42  1  0
 16 43  1  0
 19 44  1  0
 22 45  1  0
 22 46  1  0
 24 47  1  0
 24 48  1  0
 25 49  1  0
 25 50  1  0
 26 51  1  0
 26 52  1  0
 27 53  1  0
 27 54  1  0
 28 55  1  0
 29 56  1  0
 29 57  1  0
 30 58  1  0
 30 59  1  0
 30 60  1  0
M  END
>  <mol_id>  (41) 
MCULE-6708544121

>  <drugclip_rank>  (41) 
41

>  <conformer>  (41) 
38

>  <align_rmsd>  (41) 
0.089

$$$$
MCULE-2451548413
     RDKit          3D

 62 65  0  0  0  0  0  0  0  0999 V2000
    5.3190   -1.6533   -0.4327 C   0  0  0  0  0  0  0  0  0  0  0  0
    4.0088   -1.2373   -0.7654 C   0  0  0  0  0  0  0  0  0  0  0  0
    3.7566    0.1323   -0.9311 C   0  0  0  0  0  0  0  0  0  0  0  0
    4.7638    1.0737   -0.7271 C   0  0  0  0  0  0  0  0  0  0  0  0
    6.0583    0.6812   -0.3750 C   0  0  0  0  0  0  0  0  0  0  0  0
    6.3184   -0.6924   -0.2449 C   0  0  0  0  0  0  0  0  0  0  0  0
    7.4870   -1.3771    0.0345 N   0  0  0  0  0  0  0  0  0  0  0  0
    7.2513   -2.7278    0.0697 C   0  0  0  0  0  0  0  0  0  0  0  0
    5.9230   -2.9284   -0.2266 C   0  0  0  0  0  0  0  0  0  0  0  0
    8.7999   -0.7787    0.2085 C   0  0  0  0  0  0  0  0  0  0  0  0
    9.4946   -0.5385   -1.1289 C   0  0  0  0  0  0  0  0  0  0  0  0
   10.7856    0.0313   -0.8878 O   0  0  0  0  0  0  0  0  0  0  0  0
   11.4866    0.2599   -2.1061 C   0  0  0  0  0  0  0  0  0  0  0  0
    3.0588   -2.2044   -0.9806 O   0  0  0  0  0  0  0  0  0  0  0  0
    1.7751   -1.9244   -0.4317 C   0  0  0  0  0  0  0  0  0  0  0  0
    0.7646   -1.3656   -1.4480 C   0  0  0  0  0  0  0  0  0  0  0  0
    1.0299   -1.2867   -2.6498 O   0  0  0  0  0  0  0  0  0  0  0  0
   -0.4627   -0.9296   -0.9463 N   0  0  0  0  0  0  0  0  0  0  0  0
   -0.8885   -1.0706    0.4476 C   0  0  0  0  0  0  0  0  0  0  0  0
   -2.4054   -1.1540    0.5800 C   0  0  0  0  0  0  0  0  0  0  0  0
   -3.1365    0.0393   -0.0741 C   0  0  0  0  0  0  0  0  0  0  0  0
   -2.2828    0.7216   -1.1624 C   0  0  0  0  0  0  0  0  0  0  0  0
   -1.3968   -0.2918   -1.8728 C   0  0  0  0  0  0  0  0  0  0  0  0
   -3.7273    0.9680    0.9131 N   0  0  0  0  0  0  0  0  0  0  0  0
   -4.6160    1.9665    0.3142 C   0  0  0  0  0  0  0  0  0  0  0  0
   -5.5030    2.6093    1.3874 C   0  0  0  0  0  0  0  0  0  0  0  0
   -4.7801    2.8322    2.7198 C   0  0  0  0  0  0  0  0  0  0  0  0
   -3.2714    2.8636    2.5176 C   0  0  0  0  0  0  0  0  0  0  0  0
   -2.7764    1.5616    1.8681 C   0  0  0  0  0  0  0  0  0  0  0  0
    2.7803    0.4824   -1.2521 H   0  0  0  0  0  0  0  0  0  0  0  0
    4.5434    2.1310   -0.8623 H   0  0  0  0  0  0  0  0  0  0  0  0
    6.8367    1.4233   -0.2325 H   0  0  0  0  0  0  0  0  0  0  0  0
    8.0446   -3.4341    0.2821 H   0  0  0  0  0  0  0  0  0  0  0  0
    5.4252   -3.8864   -0.2975 H   0  0  0  0  0  0  0  0  0  0  0  0
    8.6888    0.1557    0.7723 H   0  0  0  0  0  0  0  0  0  0  0  0
    9.4008   -1.4453    0.8405 H   0  0  0  0  0  0  0  0  0  0  0  0
    8.9057    0.1479   -1.7504 H   0  0  0  0  0  0  0  0  0  0  0  0
    9.6075   -1.4842   -1.6758 H   0  0  0  0  0  0  0  0  0  0  0  0
   10.9275    0.9460   -2.7486 H   0  0  0  0  0  0  0  0  0  0  0  0
   11.6662   -0.6837   -2.6275 H   0  0  0  0  0  0  0  0  0  0  0  0
   12.4532    0.7125   -1.8659 H   0  0  0  0  0  0  0  0  0  0  0  0
    1.3821   -2.8866   -0.0856 H   0  0  0  0  0  0  0  0  0  0  0  0
    1.8431   -1.2632    0.4407 H   0  0  0  0  0  0  0  0  0  0  0  0
   -0.4927   -0.2082    0.9947 H   0  0  0  0  0  0  0  0  0  0  0  0
   -0.4392   -1.9684    0.8823 H   0  0  0  0  0  0  0  0  0  0  0  0
   -2.7411   -2.0740    0.0816 H   0  0  0  0  0  0  0  0  0  0  0  0
   -2.6950   -1.2774    1.6299 H   0  0  0  0  0  0  0  0  0  0  0  0
   -3.9921   -0.4189   -0.5945 H   0  0  0  0  0  0  0  0  0  0  0  0
   -2.9360    1.2123   -1.8956 H   0  0  0  0  0  0  0  0  0  0  0  0
   -1.6425    1.5038   -0.7356 H   0  0  0  0  0  0  0  0  0  0  0  0
   -2.0019   -1.0847   -2.3278 H   0  0  0  0  0  0  0  0  0  0  0  0
   -0.8449    0.2063   -2.6770 H   0  0  0  0  0  0  0  0  0  0  0  0
   -4.0363    2.7420   -0.2035 H   0  0  0  0  0  0  0  0  0  0  0  0
   -5.2765    1.5122   -0.4376 H   0  0  0  0  0  0  0  0  0  0  0  0
   -5.8699    3.5677    1.0043 H   0  0  0  0  0  0  0  0  0  0  0  0
   -6.3875    1.9891    1.5713 H   0  0  0  0  0  0  0  0  0  0  0  0
   -5.1318    3.7570    3.1949 H   0  0  0  0  0  0  0  0  0  0  0  0
   -5.0370    2.0115    3.4040 H   0  0  0  0  0  0  0  0  0  0  0  0
   -2.7625    3.0165    3.4773 H   0  0  0  0  0  0  0  0  0  0  0  0
   -3.0096    3.7153    1.8775 H   0  0  0  0  0  0  0  0  0  0  0  0
   -2.5900    0.8340    2.6663 H   0  0  0  0  0  0  0  0  0  0  0  0
   -1.8084    1.7774    1.4039 H   0  0  0  0  0  0  0  0  0  0  0  0
  1  2  1  0
  2  3  2  0
  3  4  1  0
  4  5  2  0
  5  6  1  0
  6  7  1  0
  7  8  1  0
  8  9  2  0
  7 10  1  0
 10 11  1  0
 11 12  1  0
 12 13  1  0
  2 14  1  0
 14 15  1  0
 15 16  1  0
 16 17  2  0
 16 18  1  0
 18 19  1  0
 19 20  1  0
 20 21  1  0
 21 22  1  0
 22 23  1  0
 21 24  1  0
 24 25  1  0
 25 26  1  0
 26 27  1  0
 27 28  1  0
 28 29  1  0
  6  1  2  0
 23 18  1  0
 29 24  1  0
  9  1  1  0
  3 30  1  0
  4 31  1  0
  5 32  1  0
  8 33  1  0
  9 34  1  0
 10 35  1  0
 10 36  1  0
 11 37  1  0
 11 38  1  0
 13 39  1  0
 13 40  1  0
 13 41  1  0
 15 42  1  0
 15 43  1  0
 19 44  1  0
 19 45  1  0
 20 46  1  0
 20 47  1  0
 21 48  1  0
 22 49  1  0
 22 50  1  0
 23 51  1  0
 23 52  1  0
 25 53  1  0
 25 54  1  0
 26 55  1  0
 26 56  1  0
 27 57  1  0
 27 58  1  0
 28 59  1  0
 28 60  1  0
 29 61  1  0
 29 62  1  0
M  END
>  <mol_id>  (42) 
MCULE-2451548413

>  <drugclip_rank>  (42) 
42

>  <conformer>  (42) 
30

>  <align_rmsd>  (42) 
0.507

$$$$
Z4244368765
     RDKit          3D

 58 60  0  0  0  0  0  0  0  0999 V2000
   -6.3245   -0.7733   -1.3288 C   0  0  0  0  0  0  0  0  0  0  0  0
   -5.8676    0.1038   -0.1602 C   0  0  0  0  0  0  0  0  0  0  0  0
   -6.4909   -0.4056    1.1424 C   0  0  0  0  0  0  0  0  0  0  0  0
   -4.3257    0.1361   -0.1012 C   0  0  0  0  0  0  0  0  0  0  0  0
   -3.8649    1.0915    0.9099 N   0  0  0  0  0  0  0  0  0  0  0  0
   -3.2465    0.4719    2.0832 C   0  0  0  0  0  0  0  0  0  0  0  0
   -2.4100    1.2102    1.0688 C   0  0  0  0  0  0  0  0  0  0  0  0
   -1.3949    0.4843    0.2392 C   0  0  0  0  0  0  0  0  0  0  0  0
   -0.1402    0.5540    0.9198 O   0  0  0  0  0  0  0  0  0  0  0  0
    0.9419    0.0030    0.2908 C   0  0  0  0  0  0  0  0  0  0  0  0
    0.9267   -0.6829   -0.9220 C   0  0  0  0  0  0  0  0  0  0  0  0
    2.1152   -1.1947   -1.4542 C   0  0  0  0  0  0  0  0  0  0  0  0
    2.1537    0.1670    0.9667 C   0  0  0  0  0  0  0  0  0  0  0  0
    3.3483   -0.3521    0.4465 C   0  0  0  0  0  0  0  0  0  0  0  0
    3.3355   -1.0296   -0.7828 C   0  0  0  0  0  0  0  0  0  0  0  0
    4.6487   -0.1278    1.1721 C   0  0  0  0  0  0  0  0  0  0  0  0
    5.6895   -1.1812    0.8008 C   0  0  0  0  0  0  0  0  0  0  0  0
    5.8136   -1.3137   -0.6470 N   0  0  0  0  0  0  0  0  0  0  0  0
    4.5963   -1.6009   -1.3905 C   0  0  0  0  0  0  0  0  0  0  0  0
    7.0149   -1.6019   -1.2732 C   0  0  0  0  0  0  0  0  0  0  0  0
    7.0961   -1.9428   -2.4468 O   0  0  0  0  0  0  0  0  0  0  0  0
    8.0781   -1.4638   -0.4400 O   0  0  0  0  0  0  0  0  0  0  0  0
    9.4301   -1.7204   -0.8984 C   0  0  0  0  0  0  0  0  0  0  0  0
   10.3130   -1.4512    0.3303 C   0  0  0  0  0  0  0  0  0  0  0  0
    9.8352   -0.7496   -2.0131 C   0  0  0  0  0  0  0  0  0  0  0  0
    9.6084   -3.1839   -1.3166 C   0  0  0  0  0  0  0  0  0  0  0  0
   -7.4171   -0.7838   -1.4050 H   0  0  0  0  0  0  0  0  0  0  0  0
   -5.9829   -1.8067   -1.2082 H   0  0  0  0  0  0  0  0  0  0  0  0
   -5.9294   -0.3935   -2.2768 H   0  0  0  0  0  0  0  0  0  0  0  0
   -6.2383    1.1214   -0.3426 H   0  0  0  0  0  0  0  0  0  0  0  0
   -6.2678    0.2626    1.9799 H   0  0  0  0  0  0  0  0  0  0  0  0
   -6.1199   -1.4049    1.3950 H   0  0  0  0  0  0  0  0  0  0  0  0
   -7.5817   -0.4630    1.0544 H   0  0  0  0  0  0  0  0  0  0  0  0
   -3.9520   -0.8836    0.0632 H   0  0  0  0  0  0  0  0  0  0  0  0
   -3.9494    0.4591   -1.0809 H   0  0  0  0  0  0  0  0  0  0  0  0
   -3.4404    0.9621    3.0297 H   0  0  0  0  0  0  0  0  0  0  0  0
   -3.1808   -0.6076    2.1378 H   0  0  0  0  0  0  0  0  0  0  0  0
   -2.0680    2.2070    1.3262 H   0  0  0  0  0  0  0  0  0  0  0  0
   -1.3208    0.9826   -0.7346 H   0  0  0  0  0  0  0  0  0  0  0  0
   -1.6735   -0.5664    0.1014 H   0  0  0  0  0  0  0  0  0  0  0  0
    0.0116   -0.8377   -1.4835 H   0  0  0  0  0  0  0  0  0  0  0  0
    2.0840   -1.7236   -2.4052 H   0  0  0  0  0  0  0  0  0  0  0  0
    2.1622    0.7105    1.9094 H   0  0  0  0  0  0  0  0  0  0  0  0
    4.4897   -0.1500    2.2566 H   0  0  0  0  0  0  0  0  0  0  0  0
    5.0203    0.8694    0.9046 H   0  0  0  0  0  0  0  0  0  0  0  0
    6.6459   -0.9165    1.2622 H   0  0  0  0  0  0  0  0  0  0  0  0
    5.4040   -2.1666    1.1913 H   0  0  0  0  0  0  0  0  0  0  0  0
    4.7108   -1.2195   -2.4120 H   0  0  0  0  0  0  0  0  0  0  0  0
    4.5008   -2.6928   -1.4419 H   0  0  0  0  0  0  0  0  0  0  0  0
   11.3728   -1.6218    0.1159 H   0  0  0  0  0  0  0  0  0  0  0  0
   10.0213   -2.0956    1.1680 H   0  0  0  0  0  0  0  0  0  0  0  0
   10.1915   -0.4191    0.6793 H   0  0  0  0  0  0  0  0  0  0  0  0
    9.6120    0.2846   -1.7276 H   0  0  0  0  0  0  0  0  0  0  0  0
   10.9046   -0.8256   -2.2386 H   0  0  0  0  0  0  0  0  0  0  0  0
    9.2910   -0.9425   -2.9428 H   0  0  0  0  0  0  0  0  0  0  0  0
   10.6615   -3.4187   -1.5059 H   0  0  0  0  0  0  0  0  0  0  0  0
    9.2356   -3.8590   -0.5375 H   0  0  0  0  0  0  0  0  0  0  0  0
    9.0519   -3.4198   -2.2285 H   0  0  0  0  0  0  0  0  0  0  0  0
  1  2  1  0
  2  3  1  0
  2  4  1  0
  4  5  1  0
  5  6  1  0
  6  7  1  0
  7  8  1  0
  8  9  1  0
  9 10  1  0
 10 11  2  0
 11 12  1  0
 10 13  1  0
 13 14  2  0
 14 15  1  0
 14 16  1  0
 16 17  1  0
 17 18  1  0
 18 19  1  0
 18 20  1  0
 20 21  2  0
 20 22  1  0
 22 23  1  0
 23 24  1  0
 23 25  1  0
 23 26  1  0
  7  5  1  0
 15 12  2  0
 19 15  1  0
  1 27  1  0
  1 28  1  0
  1 29  1  0
  2 30  1  0
  3 31  1  0
  3 32  1  0
  3 33  1  0
  4 34  1  0
  4 35  1  0
  6 36  1  0
  6 37  1  0
  7 38  1  0
  8 39  1  0
  8 40  1  0
 11 41  1  0
 12 42  1  0
 13 43  1  0
 16 44  1  0
 16 45  1  0
 17 46  1  0
 17 47  1  0
 19 48  1  0
 19 49  1  0
 24 50  1  0
 24 51  1  0
 24 52  1  0
 25 53  1  0
 25 54  1  0
 25 55  1  0
 26 56  1  0
 26 57  1  0
 26 58  1  0
M  END
>  <mol_id>  (43) 
Z4244368765

>  <drugclip_rank>  (43) 
43

>  <conformer>  (43) 
20

>  <align_rmsd>  (43) 
1.188

$$$$
Z4493402181
     RDKit          3D

 59 62  0  0  0  0  0  0  0  0999 V2000
    7.6192   -0.6154    1.3510 C   0  0  0  0  0  0  0  0  0  0  0  0
    7.3297   -0.9994    0.0148 O   0  0  0  0  0  0  0  0  0  0  0  0
    6.0242   -0.9176   -0.4071 C   0  0  0  0  0  0  0  0  0  0  0  0
    4.9609   -0.4904    0.4050 C   0  0  0  0  0  0  0  0  0  0  0  0
    5.7887   -1.3061   -1.7559 C   0  0  0  0  0  0  0  0  0  0  0  0
    6.8955   -1.7093   -2.4639 O   0  0  0  0  0  0  0  0  0  0  0  0
    6.7007   -2.1207   -3.8101 C   0  0  0  0  0  0  0  0  0  0  0  0
    4.4949   -1.2624   -2.2825 C   0  0  0  0  0  0  0  0  0  0  0  0
    3.4784   -0.8311   -1.4502 C   0  0  0  0  0  0  0  0  0  0  0  0
    3.6842   -0.4478   -0.1338 C   0  0  0  0  0  0  0  0  0  0  0  0
    2.0623   -0.6856   -1.7562 C   0  0  0  0  0  0  0  0  0  0  0  0
    1.5629   -1.0026   -2.8214 O   0  0  0  0  0  0  0  0  0  0  0  0
    1.3533   -0.0547   -0.5702 C   0  0  0  0  0  0  0  0  0  0  0  0
    2.4118   -0.0685    0.5573 C   0  0  0  0  0  0  0  0  0  0  0  0
    0.0683   -0.8133   -0.2253 C   0  0  0  0  0  0  0  0  0  0  0  0
   -0.7299   -0.2147    0.9513 C   0  0  0  0  0  0  0  0  0  0  0  0
   -1.9585   -1.0849    1.2819 C   0  0  0  0  0  0  0  0  0  0  0  0
   -3.2340   -0.5285    0.6485 C   0  0  0  0  0  0  0  0  0  0  0  0
   -3.5634    0.8090    1.1567 N   0  0  0  0  0  0  0  0  0  0  0  0
   -2.3884    1.6303    1.4723 C   0  0  0  0  0  0  0  0  0  0  0  0
   -1.1446    1.2417    0.6747 C   0  0  0  0  0  0  0  0  0  0  0  0
   -4.5173    1.5271    0.2860 C   0  0  0  0  0  0  0  0  0  0  0  0
   -5.8793    0.8646    0.1379 C   0  0  0  0  0  0  0  0  0  0  0  0
   -6.1491    0.0489   -0.9604 C   0  0  0  0  0  0  0  0  0  0  0  0
   -7.4018   -0.5514   -1.0671 C   0  0  0  0  0  0  0  0  0  0  0  0
   -8.3570   -0.3375   -0.0746 C   0  0  0  0  0  0  0  0  0  0  0  0
   -9.7233   -0.9371   -0.1639 C   0  0  0  0  0  0  0  0  0  0  0  0
   -8.0090    0.5034    0.9749 C   0  0  0  0  0  0  0  0  0  0  0  0
   -6.8042    1.1029    1.1024 N   0  0  0  0  0  0  0  0  0  0  0  0
    8.6952   -0.7371    1.5085 H   0  0  0  0  0  0  0  0  0  0  0  0
    7.1035   -1.2623    2.0683 H   0  0  0  0  0  0  0  0  0  0  0  0
    7.3758    0.4386    1.5210 H   0  0  0  0  0  0  0  0  0  0  0  0
    5.1056   -0.1988    1.4388 H   0  0  0  0  0  0  0  0  0  0  0  0
    7.6746   -2.4125   -4.2147 H   0  0  0  0  0  0  0  0  0  0  0  0
    6.3192   -1.2975   -4.4232 H   0  0  0  0  0  0  0  0  0  0  0  0
    6.0428   -2.9944   -3.8650 H   0  0  0  0  0  0  0  0  0  0  0  0
    4.2563   -1.5445   -3.3005 H   0  0  0  0  0  0  0  0  0  0  0  0
    1.1330    0.9818   -0.8541 H   0  0  0  0  0  0  0  0  0  0  0  0
    2.1815   -0.8104    1.3294 H   0  0  0  0  0  0  0  0  0  0  0  0
    2.4924    0.9193    1.0226 H   0  0  0  0  0  0  0  0  0  0  0  0
   -0.5755   -0.8533   -1.1141 H   0  0  0  0  0  0  0  0  0  0  0  0
    0.3217   -1.8575    0.0034 H   0  0  0  0  0  0  0  0  0  0  0  0
   -0.0860   -0.2275    1.8401 H   0  0  0  0  0  0  0  0  0  0  0  0
   -2.0900   -1.1202    2.3719 H   0  0  0  0  0  0  0  0  0  0  0  0
   -1.8047   -2.1227    0.9639 H   0  0  0  0  0  0  0  0  0  0  0  0
   -4.0591   -1.2142    0.8722 H   0  0  0  0  0  0  0  0  0  0  0  0
   -3.1026   -0.5167   -0.4414 H   0  0  0  0  0  0  0  0  0  0  0  0
   -2.1715    1.5080    2.5413 H   0  0  0  0  0  0  0  0  0  0  0  0
   -2.5896    2.7003    1.3387 H   0  0  0  0  0  0  0  0  0  0  0  0
   -1.3433    1.3927   -0.3943 H   0  0  0  0  0  0  0  0  0  0  0  0
   -0.3181    1.9132    0.9367 H   0  0  0  0  0  0  0  0  0  0  0  0
   -4.7141    2.5204    0.7116 H   0  0  0  0  0  0  0  0  0  0  0  0
   -4.0803    1.7037   -0.7059 H   0  0  0  0  0  0  0  0  0  0  0  0
   -5.3974   -0.1211   -1.7240 H   0  0  0  0  0  0  0  0  0  0  0  0
   -7.6230   -1.1851   -1.9218 H   0  0  0  0  0  0  0  0  0  0  0  0
  -10.1268   -1.1397    0.8339 H   0  0  0  0  0  0  0  0  0  0  0  0
   -9.6978   -1.8899   -0.7028 H   0  0  0  0  0  0  0  0  0  0  0  0
  -10.3998   -0.2545   -0.6872 H   0  0  0  0  0  0  0  0  0  0  0  0
   -8.7109    0.7293    1.7734 H   0  0  0  0  0  0  0  0  0  0  0  0
  1  2  1  0
  2  3  1  0
  3  4  2  0
  3  5  1  0
  5  6  1  0
  6  7  1  0
  5  8  2  0
  8  9  1  0
  9 10  2  0
  9 11  1  0
 11 12  2  0
 11 13  1  0
 13 14  1  0
 13 15  1  0
 15 16  1  0
 16 17  1  0
 17 18  1  0
 18 19  1  0
 19 20  1  0
 20 21  1  0
 19 22  1  0
 22 23  1  0
 23 24  2  0
 24 25  1  0
 25 26  2  0
 26 27  1  0
 26 28  1  0
 28 29  2  0
 10  4  1  0
 14 10  1  0
 21 16  1  0
 29 23  1  0
  1 30  1  0
  1 31  1  0
  1 32  1  0
  4 33  1  0
  7 34  1  0
  7 35  1  0
  7 36  1  0
  8 37  1  0
 13 38  1  0
 14 39  1  0
 14 40  1  0
 15 41  1  0
 15 42  1  0
 16 43  1  0
 17 44  1  0
 17 45  1  0
 18 46  1  0
 18 47  1  0
 20 48  1  0
 20 49  1  0
 21 50  1  0
 21 51  1  0
 22 52  1  0
 22 53  1  0
 24 54  1  0
 25 55  1  0
 27 56  1  0
 27 57  1  0
 27 58  1  0
 28 59  1  0
M  END
>  <mol_id>  (44) 
Z4493402181

>  <drugclip_rank>  (44) 
44

>  <conformer>  (44) 
35

>  <align_rmsd>  (44) 
0.542

$$$$
STK038806
     RDKit          3D

 61 63  0  0  0  0  0  0  0  0999 V2000
    5.8886   -2.3585   -3.6119 C   0  0  0  0  0  0  0  0  0  0  0  0
    6.4649   -1.8661   -2.4116 O   0  0  0  0  0  0  0  0  0  0  0  0
    5.6550   -1.1653   -1.5518 C   0  0  0  0  0  0  0  0  0  0  0  0
    6.2702   -0.6815   -0.3802 C   0  0  0  0  0  0  0  0  0  0  0  0
    7.6054   -0.9683   -0.2364 O   0  0  0  0  0  0  0  0  0  0  0  0
    8.2512   -0.5190    0.9460 C   0  0  0  0  0  0  0  0  0  0  0  0
    5.5135    0.0441    0.5446 C   0  0  0  0  0  0  0  0  0  0  0  0
    4.1570    0.2869    0.3152 C   0  0  0  0  0  0  0  0  0  0  0  0
    3.5332   -0.1955   -0.8392 C   0  0  0  0  0  0  0  0  0  0  0  0
    4.2938   -0.9175   -1.7721 C   0  0  0  0  0  0  0  0  0  0  0  0
    2.0650    0.0638   -1.0789 C   0  0  0  0  0  0  0  0  0  0  0  0
    1.1700   -1.1840   -0.9885 C   0  0  0  0  0  0  0  0  0  0  0  0
    0.9425   -1.6718    0.3782 N   0  0  0  0  0  0  0  0  0  0  0  0
    1.9379   -2.5861    0.9222 C   0  0  0  0  0  0  0  0  0  0  0  0
    0.1040   -1.0433    1.3011 C   0  0  0  0  0  0  0  0  0  0  0  0
    0.2357   -1.2238    2.5134 O   0  0  0  0  0  0  0  0  0  0  0  0
   -1.0212   -0.1595    0.7584 C   0  0  0  0  0  0  0  0  0  0  0  0
   -1.6134    0.7272    1.8606 C   0  0  0  0  0  0  0  0  0  0  0  0
   -2.7900    1.5457    1.3319 C   0  0  0  0  0  0  0  0  0  0  0  0
   -2.1397   -1.0237    0.1684 C   0  0  0  0  0  0  0  0  0  0  0  0
   -3.3077   -0.1617   -0.3139 C   0  0  0  0  0  0  0  0  0  0  0  0
   -3.8345    0.6822    0.7653 N   0  0  0  0  0  0  0  0  0  0  0  0
   -4.9794    1.5020    0.3218 C   0  0  0  0  0  0  0  0  0  0  0  0
   -6.1971    0.6987    0.0072 C   0  0  0  0  0  0  0  0  0  0  0  0
   -6.9409    0.2679    1.0673 O   0  0  0  0  0  0  0  0  0  0  0  0
   -7.9946   -0.4307    0.5625 C   0  0  0  0  0  0  0  0  0  0  0  0
   -8.9277   -1.0038    1.5513 C   0  0  0  0  0  0  0  0  0  0  0  0
   -7.9420   -0.4411   -0.8142 C   0  0  0  0  0  0  0  0  0  0  0  0
   -6.7853    0.2919   -1.1736 C   0  0  0  0  0  0  0  0  0  0  0  0
    5.5223   -1.5396   -4.2398 H   0  0  0  0  0  0  0  0  0  0  0  0
    6.6723   -2.8794   -4.1704 H   0  0  0  0  0  0  0  0  0  0  0  0
    5.0945   -3.0824   -3.4010 H   0  0  0  0  0  0  0  0  0  0  0  0
    9.2956   -0.8423    0.8999 H   0  0  0  0  0  0  0  0  0  0  0  0
    7.8032   -0.9701    1.8376 H   0  0  0  0  0  0  0  0  0  0  0  0
    8.2449    0.5742    1.0084 H   0  0  0  0  0  0  0  0  0  0  0  0
    5.9481    0.4346    1.4587 H   0  0  0  0  0  0  0  0  0  0  0  0
    3.5891    0.8462    1.0567 H   0  0  0  0  0  0  0  0  0  0  0  0
    3.8016   -1.2773   -2.6696 H   0  0  0  0  0  0  0  0  0  0  0  0
    1.9671    0.4942   -2.0843 H   0  0  0  0  0  0  0  0  0  0  0  0
    1.7070    0.8364   -0.3879 H   0  0  0  0  0  0  0  0  0  0  0  0
    0.2027   -0.9334   -1.4318 H   0  0  0  0  0  0  0  0  0  0  0  0
    1.5688   -2.0095   -1.5895 H   0  0  0  0  0  0  0  0  0  0  0  0
    2.2802   -3.2744    0.1445 H   0  0  0  0  0  0  0  0  0  0  0  0
    2.7798   -2.0161    1.3208 H   0  0  0  0  0  0  0  0  0  0  0  0
    1.5042   -3.1752    1.7366 H   0  0  0  0  0  0  0  0  0  0  0  0
   -0.6170    0.5079   -0.0099 H   0  0  0  0  0  0  0  0  0  0  0  0
   -1.9499    0.1154    2.7083 H   0  0  0  0  0  0  0  0  0  0  0  0
   -0.8420    1.4025    2.2508 H   0  0  0  0  0  0  0  0  0  0  0  0
   -3.1991    2.1252    2.1686 H   0  0  0  0  0  0  0  0  0  0  0  0
   -2.4316    2.2645    0.5832 H   0  0  0  0  0  0  0  0  0  0  0  0
   -1.7721   -1.6301   -0.6664 H   0  0  0  0  0  0  0  0  0  0  0  0
   -2.4965   -1.7374    0.9237 H   0  0  0  0  0  0  0  0  0  0  0  0
   -4.0822   -0.8433   -0.6826 H   0  0  0  0  0  0  0  0  0  0  0  0
   -2.9825    0.4521   -1.1642 H   0  0  0  0  0  0  0  0  0  0  0  0
   -4.7038    2.1134   -0.5474 H   0  0  0  0  0  0  0  0  0  0  0  0
   -5.2585    2.2032    1.1196 H   0  0  0  0  0  0  0  0  0  0  0  0
   -9.7423   -1.5419    1.0569 H   0  0  0  0  0  0  0  0  0  0  0  0
   -8.4053   -1.7053    2.2089 H   0  0  0  0  0  0  0  0  0  0  0  0
   -9.3662   -0.2127    2.1674 H   0  0  0  0  0  0  0  0  0  0  0  0
   -8.6507   -0.9195   -1.4752 H   0  0  0  0  0  0  0  0  0  0  0  0
   -6.4191    0.4960   -2.1694 H   0  0  0  0  0  0  0  0  0  0  0  0
  1  2  1  0
  2  3  1  0
  3  4  2  0
  4  5  1  0
  5  6  1  0
  4  7  1  0
  7  8  2  0
  8  9  1  0
  9 10  2  0
  9 11  1  0
 11 12  1  0
 12 13  1  0
 13 14  1  0
 13 15  1  0
 15 16  2  0
 15 17  1  0
 17 18  1  0
 18 19  1  0
 17 20  1  0
 20 21  1  0
 21 22  1  0
 22 23  1  0
 23 24  1  0
 24 25  1  0
 25 26  1  0
 26 27  1  0
 26 28  2  0
 28 29  1  0
 10  3  1  0
 22 19  1  0
 29 24  2  0
  1 30  1  0
  1 31  1  0
  1 32  1  0
  6 33  1  0
  6 34  1  0
  6 35  1  0
  7 36  1  0
  8 37  1  0
 10 38  1  0
 11 39  1  0
 11 40  1  0
 12 41  1  0
 12 42  1  0
 14 43  1  0
 14 44  1  0
 14 45  1  0
 17 46  1  0
 18 47  1  0
 18 48  1  0
 19 49  1  0
 19 50  1  0
 20 51  1  0
 20 52  1  0
 21 53  1  0
 21 54  1  0
 23 55  1  0
 23 56  1  0
 27 57  1  0
 27 58  1  0
 27 59  1  0
 28 60  1  0
 29 61  1  0
M  END
>  <mol_id>  (45) 
STK038806

>  <drugclip_rank>  (45) 
45

>  <conformer>  (45) 
4

>  <align_rmsd>  (45) 
0.413

$$$$
MCULE-7731031692
     RDKit          3D

 55 57  0  0  0  0  0  0  0  0999 V2000
    3.6115   -1.0997   -1.2288 C   0  0  0  0  0  0  0  0  0  0  0  0
    4.2151   -1.4193   -0.0037 C   0  0  0  0  0  0  0  0  0  0  0  0
    5.2622   -0.6419    0.4948 C   0  0  0  0  0  0  0  0  0  0  0  0
    5.7236    0.4554   -0.2297 C   0  0  0  0  0  0  0  0  0  0  0  0
    5.1414    0.7749   -1.4545 C   0  0  0  0  0  0  0  0  0  0  0  0
    4.0946   -0.0008   -1.9544 C   0  0  0  0  0  0  0  0  0  0  0  0
    2.4961   -1.9631   -1.7744 C   0  0  0  0  0  0  0  0  0  0  0  0
    1.5079   -1.2219   -2.4898 O   0  0  0  0  0  0  0  0  0  0  0  0
    0.5450   -0.5278   -1.7915 C   0  0  0  0  0  0  0  0  0  0  0  0
    0.4358   -0.3863   -0.4585 C   0  0  0  0  0  0  0  0  0  0  0  0
   -0.5523    0.3302    0.2225 N   0  0  0  0  0  0  0  0  0  0  0  0
   -1.5527    0.9791   -0.5344 C   0  0  0  0  0  0  0  0  0  0  0  0
   -1.5473    0.9291   -1.8803 C   0  0  0  0  0  0  0  0  0  0  0  0
   -0.5024    0.1693   -2.6020 C   0  0  0  0  0  0  0  0  0  0  0  0
   -0.5249    0.1292   -3.8297 O   0  0  0  0  0  0  0  0  0  0  0  0
   -2.6662    1.7777    0.1443 C   0  0  0  0  0  0  0  0  0  0  0  0
   -3.6082    0.9630    0.9303 N   0  0  0  0  0  0  0  0  0  0  0  0
   -4.5281    1.8284    1.6928 C   0  0  0  0  0  0  0  0  0  0  0  0
   -5.5909    1.0227    2.4774 C   0  0  0  0  0  0  0  0  0  0  0  0
   -6.3818    0.0778    1.6626 N   0  0  0  0  0  0  0  0  0  0  0  0
   -5.4381   -0.7603    0.8899 C   0  0  0  0  0  0  0  0  0  0  0  0
   -4.3753    0.0270    0.0857 C   0  0  0  0  0  0  0  0  0  0  0  0
   -7.3517    0.7371    0.7772 C   0  0  0  0  0  0  0  0  0  0  0  0
   -8.5110    1.3656    1.5441 C   0  0  0  0  0  0  0  0  0  0  0  0
   -0.4550    0.4508    1.6929 C   0  0  0  0  0  0  0  0  0  0  0  0
    0.4620    1.6041    2.0765 C   0  0  0  0  0  0  0  0  0  0  0  0
    3.8743   -2.2758    0.5724 H   0  0  0  0  0  0  0  0  0  0  0  0
    5.7229   -0.8958    1.4464 H   0  0  0  0  0  0  0  0  0  0  0  0
    6.5400    1.0596    0.1577 H   0  0  0  0  0  0  0  0  0  0  0  0
    5.5029    1.6266   -2.0244 H   0  0  0  0  0  0  0  0  0  0  0  0
    3.6519    0.2586   -2.9154 H   0  0  0  0  0  0  0  0  0  0  0  0
    2.0256   -2.5747   -0.9947 H   0  0  0  0  0  0  0  0  0  0  0  0
    2.9432   -2.6658   -2.4876 H   0  0  0  0  0  0  0  0  0  0  0  0
    1.1562   -0.8355    0.2154 H   0  0  0  0  0  0  0  0  0  0  0  0
   -2.2897    1.4130   -2.5004 H   0  0  0  0  0  0  0  0  0  0  0  0
   -2.1852    2.5153    0.7999 H   0  0  0  0  0  0  0  0  0  0  0  0
   -3.2195    2.3694   -0.5983 H   0  0  0  0  0  0  0  0  0  0  0  0
   -3.9500    2.4152    2.4177 H   0  0  0  0  0  0  0  0  0  0  0  0
   -5.0290    2.5433    1.0271 H   0  0  0  0  0  0  0  0  0  0  0  0
   -5.0770    0.4434    3.2562 H   0  0  0  0  0  0  0  0  0  0  0  0
   -6.2422    1.7122    3.0246 H   0  0  0  0  0  0  0  0  0  0  0  0
   -4.9213   -1.4260    1.5950 H   0  0  0  0  0  0  0  0  0  0  0  0
   -5.9887   -1.4268    0.2142 H   0  0  0  0  0  0  0  0  0  0  0  0
   -4.8658    0.5631   -0.7364 H   0  0  0  0  0  0  0  0  0  0  0  0
   -3.6988   -0.7086   -0.3642 H   0  0  0  0  0  0  0  0  0  0  0  0
   -6.8853    1.4934    0.1357 H   0  0  0  0  0  0  0  0  0  0  0  0
   -7.7908   -0.0141    0.1081 H   0  0  0  0  0  0  0  0  0  0  0  0
   -8.9774    0.6405    2.2193 H   0  0  0  0  0  0  0  0  0  0  0  0
   -8.1926    2.2320    2.1317 H   0  0  0  0  0  0  0  0  0  0  0  0
   -9.2777    1.7107    0.8419 H   0  0  0  0  0  0  0  0  0  0  0  0
   -0.0581   -0.4811    2.1164 H   0  0  0  0  0  0  0  0  0  0  0  0
   -1.4315    0.5852    2.1638 H   0  0  0  0  0  0  0  0  0  0  0  0
    0.5277    1.6892    3.1655 H   0  0  0  0  0  0  0  0  0  0  0  0
    1.4745    1.4517    1.6879 H   0  0  0  0  0  0  0  0  0  0  0  0
    0.0934    2.5554    1.6809 H   0  0  0  0  0  0  0  0  0  0  0  0
  1  2  2  0
  2  3  1  0
  3  4  2  0
  4  5  1  0
  5  6  2  0
  1  7  1  0
  7  8  1  0
  8  9  1  0
  9 10  2  0
 10 11  1  0
 11 12  1  0
 12 13  2  0
 13 14  1  0
 14 15  2  0
 12 16  1  0
 16 17  1  0
 17 18  1  0
 18 19  1  0
 19 20  1  0
 20 21  1  0
 21 22  1  0
 20 23  1  0
 23 24  1  0
 11 25  1  0
 25 26  1  0
  6  1  1  0
 14  9  1  0
 22 17  1  0
  2 27  1  0
  3 28  1  0
  4 29  1  0
  5 30  1  0
  6 31  1  0
  7 32  1  0
  7 33  1  0
 10 34  1  0
 13 35  1  0
 16 36  1  0
 16 37  1  0
 18 38  1  0
 18 39  1  0
 19 40  1  0
 19 41  1  0
 21 42  1  0
 21 43  1  0
 22 44  1  0
 22 45  1  0
 23 46  1  0
 23 47  1  0
 24 48  1  0
 24 49  1  0
 24 50  1  0
 25 51  1  0
 25 52  1  0
 26 53  1  0
 26 54  1  0
 26 55  1  0
M  END
>  <mol_id>  (46) 
MCULE-7731031692

>  <drugclip_rank>  (46) 
46

>  <conformer>  (46) 
3

>  <align_rmsd>  (46) 
0.221

$$$$
MCULE-9960679025
     RDKit          3D

 61 63  0  0  0  0  0  0  0  0999 V2000
    4.0593    0.0396   -1.9199 C   0  0  0  0  0  0  0  0  0  0  0  0
    5.0955    0.8317   -1.4074 C   0  0  0  0  0  0  0  0  0  0  0  0
    5.5785    2.0304   -2.1691 C   0  0  0  0  0  0  0  0  0  0  0  0
    5.7109    0.4561   -0.2088 C   0  0  0  0  0  0  0  0  0  0  0  0
    5.2842   -0.6807    0.4771 C   0  0  0  0  0  0  0  0  0  0  0  0
    4.2413   -1.4550   -0.0312 C   0  0  0  0  0  0  0  0  0  0  0  0
    3.6089   -1.0964   -1.2296 C   0  0  0  0  0  0  0  0  0  0  0  0
    2.5022   -1.9627   -1.7884 C   0  0  0  0  0  0  0  0  0  0  0  0
    1.5106   -1.2295   -2.5073 O   0  0  0  0  0  0  0  0  0  0  0  0
    0.5382   -0.5436   -1.8144 C   0  0  0  0  0  0  0  0  0  0  0  0
    0.4260   -0.3948   -0.4824 C   0  0  0  0  0  0  0  0  0  0  0  0
   -0.5758    0.3083    0.1939 N   0  0  0  0  0  0  0  0  0  0  0  0
   -1.5835    0.9402   -0.5691 C   0  0  0  0  0  0  0  0  0  0  0  0
   -1.5776    0.8774   -1.9146 C   0  0  0  0  0  0  0  0  0  0  0  0
   -0.5224    0.1260   -2.6301 C   0  0  0  0  0  0  0  0  0  0  0  0
   -0.5457    0.0726   -3.8574 O   0  0  0  0  0  0  0  0  0  0  0  0
   -2.6921    1.7563    0.0993 C   0  0  0  0  0  0  0  0  0  0  0  0
   -3.6039    0.9692    0.9467 N   0  0  0  0  0  0  0  0  0  0  0  0
   -4.4801    1.8252    1.7589 C   0  0  0  0  0  0  0  0  0  0  0  0
   -5.8753    2.0221    1.1718 C   0  0  0  0  0  0  0  0  0  0  0  0
   -6.6088    0.6815    0.9445 C   0  0  0  0  0  0  0  0  0  0  0  0
   -5.6168   -0.4956    0.8641 C   0  0  0  0  0  0  0  0  0  0  0  0
   -4.3326   -0.0457    0.1677 C   0  0  0  0  0  0  0  0  0  0  0  0
   -7.7542    0.4934    1.8628 N   0  0  0  0  0  0  0  0  0  0  0  0
   -8.6161   -0.6154    1.4497 C   0  0  0  0  0  0  0  0  0  0  0  0
   -7.3910    0.3502    3.2714 C   0  0  0  0  0  0  0  0  0  0  0  0
   -0.5403    0.3515    1.6722 C   0  0  0  0  0  0  0  0  0  0  0  0
   -1.0388   -0.9552    2.2738 C   0  0  0  0  0  0  0  0  0  0  0  0
    3.5925    0.3127   -2.8660 H   0  0  0  0  0  0  0  0  0  0  0  0
    5.9931    2.7838   -1.4912 H   0  0  0  0  0  0  0  0  0  0  0  0
    6.3528    1.7330   -2.8829 H   0  0  0  0  0  0  0  0  0  0  0  0
    4.7553    2.5033   -2.7148 H   0  0  0  0  0  0  0  0  0  0  0  0
    6.5306    1.0457    0.1953 H   0  0  0  0  0  0  0  0  0  0  0  0
    5.7711   -0.9665    1.4059 H   0  0  0  0  0  0  0  0  0  0  0  0
    3.9293   -2.3434    0.5132 H   0  0  0  0  0  0  0  0  0  0  0  0
    2.9594   -2.6586   -2.5020 H   0  0  0  0  0  0  0  0  0  0  0  0
    2.0315   -2.5810   -1.0139 H   0  0  0  0  0  0  0  0  0  0  0  0
    1.1518   -0.8295    0.1951 H   0  0  0  0  0  0  0  0  0  0  0  0
   -2.3215    1.3538   -2.5394 H   0  0  0  0  0  0  0  0  0  0  0  0
   -2.1965    2.5316    0.6988 H   0  0  0  0  0  0  0  0  0  0  0  0
   -3.2751    2.3067   -0.6524 H   0  0  0  0  0  0  0  0  0  0  0  0
   -4.0208    2.8029    1.9503 H   0  0  0  0  0  0  0  0  0  0  0  0
   -4.5715    1.3582    2.7473 H   0  0  0  0  0  0  0  0  0  0  0  0
   -5.7855    2.5457    0.2099 H   0  0  0  0  0  0  0  0  0  0  0  0
   -6.4595    2.6953    1.8109 H   0  0  0  0  0  0  0  0  0  0  0  0
   -7.0525    0.7846   -0.0572 H   0  0  0  0  0  0  0  0  0  0  0  0
   -6.0645   -1.3241    0.3024 H   0  0  0  0  0  0  0  0  0  0  0  0
   -5.3647   -0.8889    1.8555 H   0  0  0  0  0  0  0  0  0  0  0  0
   -4.5973    0.3334   -0.8287 H   0  0  0  0  0  0  0  0  0  0  0  0
   -3.6867   -0.9187    0.0202 H   0  0  0  0  0  0  0  0  0  0  0  0
   -9.5287   -0.6356    2.0562 H   0  0  0  0  0  0  0  0  0  0  0  0
   -8.1228   -1.5886    1.5473 H   0  0  0  0  0  0  0  0  0  0  0  0
   -8.9390   -0.4922    0.4100 H   0  0  0  0  0  0  0  0  0  0  0  0
   -6.8053    1.2037    3.6255 H   0  0  0  0  0  0  0  0  0  0  0  0
   -8.2943    0.3294    3.8924 H   0  0  0  0  0  0  0  0  0  0  0  0
   -6.8287   -0.5667    3.4748 H   0  0  0  0  0  0  0  0  0  0  0  0
    0.4918    0.5267    2.0035 H   0  0  0  0  0  0  0  0  0  0  0  0
   -1.1143    1.1894    2.0777 H   0  0  0  0  0  0  0  0  0  0  0  0
   -2.0600   -1.1830    1.9571 H   0  0  0  0  0  0  0  0  0  0  0  0
   -1.0262   -0.8958    3.3667 H   0  0  0  0  0  0  0  0  0  0  0  0
   -0.4048   -1.7969    1.9764 H   0  0  0  0  0  0  0  0  0  0  0  0
  1  2  2  0
  2  3  1  0
  2  4  1  0
  4  5  2  0
  5  6  1  0
  6  7  2  0
  7  8  1  0
  8  9  1  0
  9 10  1  0
 10 11  2  0
 11 12  1  0
 12 13  1  0
 13 14  2  0
 14 15  1  0
 15 16  2  0
 13 17  1  0
 17 18  1  0
 18 19  1  0
 19 20  1  0
 20 21  1  0
 21 22  1  0
 22 23  1  0
 21 24  1  0
 24 25  1  0
 24 26  1  0
 12 27  1  0
 27 28  1  0
  7  1  1  0
 15 10  1  0
 23 18  1  0
  1 29  1  0
  3 30  1  0
  3 31  1  0
  3 32  1  0
  4 33  1  0
  5 34  1  0
  6 35  1  0
  8 36  1  0
  8 37  1  0
 11 38  1  0
 14 39  1  0
 17 40  1  0
 17 41  1  0
 19 42  1  0
 19 43  1  0
 20 44  1  0
 20 45  1  0
 21 46  1  0
 22 47  1  0
 22 48  1  0
 23 49  1  0
 23 50  1  0
 25 51  1  0
 25 52  1  0
 25 53  1  0
 26 54  1  0
 26 55  1  0
 26 56  1  0
 27 57  1  0
 27 58  1  0
 28 59  1  0
 28 60  1  0
 28 61  1  0
M  END
>  <mol_id>  (47) 
MCULE-9960679025

>  <drugclip_rank>  (47) 
47

>  <conformer>  (47) 
26

>  <align_rmsd>  (47) 
0.227

$$$$
STK614783
     RDKit          3D

 59 64  0  0  0  0  0  0  0  0999 V2000
    7.9515   -0.1861    0.1984 C   0  0  0  0  0  0  0  0  0  0  0  0
    8.6896   -0.0330    1.5346 C   0  0  0  0  0  0  0  0  0  0  0  0
    7.7626    0.7630    2.4596 C   0  0  0  0  0  0  0  0  0  0  0  0
    6.4372    0.5620    1.8184 C   0  0  0  0  0  0  0  0  0  0  0  0
    5.1619    0.8904    2.4558 C   0  0  0  0  0  0  0  0  0  0  0  0
    4.0309    0.6327    1.6836 O   0  0  0  0  0  0  0  0  0  0  0  0
    5.0957    1.3534    3.5868 O   0  0  0  0  0  0  0  0  0  0  0  0
    6.5336    0.0485    0.5903 C   0  0  0  0  0  0  0  0  0  0  0  0
    5.3463   -0.2073   -0.2003 C   0  0  0  0  0  0  0  0  0  0  0  0
    4.1037    0.0993    0.3690 C   0  0  0  0  0  0  0  0  0  0  0  0
    2.8989   -0.1032   -0.3177 C   0  0  0  0  0  0  0  0  0  0  0  0
    5.3819   -0.7367   -1.4900 C   0  0  0  0  0  0  0  0  0  0  0  0
    4.1888   -0.9652   -2.1843 C   0  0  0  0  0  0  0  0  0  0  0  0
    4.2895   -1.6416   -3.7718 Cl  0  0  0  0  0  0  0  0  0  0  0  0
    2.9507   -0.6645   -1.5980 C   0  0  0  0  0  0  0  0  0  0  0  0
    1.8132   -0.9094   -2.3229 O   0  0  0  0  0  0  0  0  0  0  0  0
    0.5928   -0.8407   -1.5716 C   0  0  0  0  0  0  0  0  0  0  0  0
    0.5209    0.3326   -0.7107 N   0  0  0  0  0  0  0  0  0  0  0  0
    1.5717    0.2293    0.3042 C   0  0  0  0  0  0  0  0  0  0  0  0
   -0.8024    0.6154   -0.1199 C   0  0  0  0  0  0  0  0  0  0  0  0
   -1.8402    1.0193   -1.1762 C   0  0  0  0  0  0  0  0  0  0  0  0
   -3.1209    1.5487   -0.5103 C   0  0  0  0  0  0  0  0  0  0  0  0
   -1.3869   -0.4824    0.7976 C   0  0  0  0  0  0  0  0  0  0  0  0
   -2.9182   -0.4204    0.9062 C   0  0  0  0  0  0  0  0  0  0  0  0
   -3.3795    0.9558    0.8050 N   0  0  0  0  0  0  0  0  0  0  0  0
   -4.7368    1.1928    1.3116 C   0  0  0  0  0  0  0  0  0  0  0  0
   -5.8671    0.4749    0.6029 C   0  0  0  0  0  0  0  0  0  0  0  0
   -6.2344   -0.8276    0.9739 C   0  0  0  0  0  0  0  0  0  0  0  0
   -7.2786   -1.4865    0.3221 C   0  0  0  0  0  0  0  0  0  0  0  0
   -7.9718   -0.8502   -0.7052 C   0  0  0  0  0  0  0  0  0  0  0  0
   -7.6242    0.4459   -1.0793 C   0  0  0  0  0  0  0  0  0  0  0  0
   -6.5803    1.1055   -0.4278 C   0  0  0  0  0  0  0  0  0  0  0  0
    8.1198   -1.1832   -0.2199 H   0  0  0  0  0  0  0  0  0  0  0  0
    8.2833    0.5671   -0.5244 H   0  0  0  0  0  0  0  0  0  0  0  0
    8.8767   -1.0250    1.9667 H   0  0  0  0  0  0  0  0  0  0  0  0
    9.6632    0.4528    1.4120 H   0  0  0  0  0  0  0  0  0  0  0  0
    8.0292    1.8251    2.4688 H   0  0  0  0  0  0  0  0  0  0  0  0
    7.8020    0.3748    3.4817 H   0  0  0  0  0  0  0  0  0  0  0  0
    6.3285   -0.9795   -1.9651 H   0  0  0  0  0  0  0  0  0  0  0  0
    0.4788   -1.7838   -1.0220 H   0  0  0  0  0  0  0  0  0  0  0  0
   -0.1987   -0.8158   -2.3259 H   0  0  0  0  0  0  0  0  0  0  0  0
    1.3435   -0.5459    1.0463 H   0  0  0  0  0  0  0  0  0  0  0  0
    1.6511    1.1918    0.8237 H   0  0  0  0  0  0  0  0  0  0  0  0
   -0.6644    1.5112    0.5048 H   0  0  0  0  0  0  0  0  0  0  0  0
   -1.4376    1.7900   -1.8448 H   0  0  0  0  0  0  0  0  0  0  0  0
   -2.1019    0.1557   -1.8003 H   0  0  0  0  0  0  0  0  0  0  0  0
   -3.9424    1.3768   -1.2135 H   0  0  0  0  0  0  0  0  0  0  0  0
   -3.0312    2.6345   -0.3842 H   0  0  0  0  0  0  0  0  0  0  0  0
   -1.1220   -1.4870    0.4520 H   0  0  0  0  0  0  0  0  0  0  0  0
   -0.9463   -0.3733    1.7971 H   0  0  0  0  0  0  0  0  0  0  0  0
   -3.3688   -1.0438    0.1232 H   0  0  0  0  0  0  0  0  0  0  0  0
   -3.2000   -0.8634    1.8692 H   0  0  0  0  0  0  0  0  0  0  0  0
   -4.7695    0.9257    2.3768 H   0  0  0  0  0  0  0  0  0  0  0  0
   -4.9385    2.2726    1.3037 H   0  0  0  0  0  0  0  0  0  0  0  0
   -5.7088   -1.3363    1.7786 H   0  0  0  0  0  0  0  0  0  0  0  0
   -7.5525   -2.4957    0.6182 H   0  0  0  0  0  0  0  0  0  0  0  0
   -8.7851   -1.3630   -1.2119 H   0  0  0  0  0  0  0  0  0  0  0  0
   -8.1669    0.9449   -1.8779 H   0  0  0  0  0  0  0  0  0  0  0  0
   -6.3245    2.1188   -0.7297 H   0  0  0  0  0  0  0  0  0  0  0  0
  1  2  1  0
  2  3  1  0
  3  4  1  0
  4  5  1  0
  5  6  1  0
  5  7  2  0
  4  8  2  0
  8  9  1  0
  9 10  2  0
 10 11  1  0
  9 12  1  0
 12 13  2  0
 13 14  1  0
 13 15  1  0
 15 16  1  0
 16 17  1  0
 17 18  1  0
 18 19  1  0
 18 20  1  0
 20 21  1  0
 21 22  1  0
 20 23  1  0
 23 24  1  0
 24 25  1  0
 25 26  1  0
 26 27  1  0
 27 28  2  0
 28 29  1  0
 29 30  2  0
 30 31  1  0
 31 32  2  0
  8  1  1  0
 10  6  1  0
 15 11  2  0
 19 11  1  0
 25 22  1  0
 32 27  1  0
  1 33  1  0
  1 34  1  0
  2 35  1  0
  2 36  1  0
  3 37  1  0
  3 38  1  0
 12 39  1  0
 17 40  1  0
 17 41  1  0
 19 42  1  0
 19 43  1  0
 20 44  1  0
 21 45  1  0
 21 46  1  0
 22 47  1  0
 22 48  1  0
 23 49  1  0
 23 50  1  0
 24 51  1  0
 24 52  1  0
 26 53  1  0
 26 54  1  0
 28 55  1  0
 29 56  1  0
 30 57  1  0
 31 58  1  0
 32 59  1  0
M  END
>  <mol_id>  (48) 
STK614783

>  <drugclip_rank>  (48) 
48

>  <conformer>  (48) 
25

>  <align_rmsd>  (48) 
0.316

$$$$
MCULE-2656552248
     RDKit          3D

 61 63  0  0  0  0  0  0  0  0999 V2000
    3.6112   -1.1004   -1.2325 C   0  0  0  0  0  0  0  0  0  0  0  0
    4.2298   -1.4383   -0.0213 C   0  0  0  0  0  0  0  0  0  0  0  0
    5.2719   -0.6580    0.4867 C   0  0  0  0  0  0  0  0  0  0  0  0
    5.7293    0.4612   -0.2171 C   0  0  0  0  0  0  0  0  0  0  0  0
    6.8263    1.3185    0.3405 C   0  0  0  0  0  0  0  0  0  0  0  0
    5.1145    0.8001   -1.4267 C   0  0  0  0  0  0  0  0  0  0  0  0
    4.0730    0.0205   -1.9350 C   0  0  0  0  0  0  0  0  0  0  0  0
    2.5041   -1.9673   -1.7878 C   0  0  0  0  0  0  0  0  0  0  0  0
    1.5104   -1.2295   -2.4990 O   0  0  0  0  0  0  0  0  0  0  0  0
    0.5419   -0.5444   -1.8003 C   0  0  0  0  0  0  0  0  0  0  0  0
    0.4123   -0.4321   -0.4664 C   0  0  0  0  0  0  0  0  0  0  0  0
   -0.5862    0.2705    0.2151 N   0  0  0  0  0  0  0  0  0  0  0  0
   -1.5684    0.9459   -0.5436 C   0  0  0  0  0  0  0  0  0  0  0  0
   -1.5429    0.9225   -1.8897 C   0  0  0  0  0  0  0  0  0  0  0  0
   -0.4929    0.1697   -2.6113 C   0  0  0  0  0  0  0  0  0  0  0  0
   -0.4988    0.1525   -3.8398 O   0  0  0  0  0  0  0  0  0  0  0  0
   -2.6689    1.7649    0.1330 C   0  0  0  0  0  0  0  0  0  0  0  0
   -3.6071    0.9666    0.9384 N   0  0  0  0  0  0  0  0  0  0  0  0
   -4.4746    1.8137    1.7543 C   0  0  0  0  0  0  0  0  0  0  0  0
   -5.2273    0.9749    2.7953 C   0  0  0  0  0  0  0  0  0  0  0  0
   -5.5813   -0.4400    2.2852 C   0  0  0  0  0  0  0  0  0  0  0  0
   -5.7037   -0.4278    0.7565 C   0  0  0  0  0  0  0  0  0  0  0  0
   -4.3893    0.0354    0.1069 C   0  0  0  0  0  0  0  0  0  0  0  0
   -6.7335   -0.9914    3.0349 N   0  0  0  0  0  0  0  0  0  0  0  0
   -8.0341   -0.4872    2.5940 C   0  0  0  0  0  0  0  0  0  0  0  0
   -6.7358   -2.4558    3.0184 C   0  0  0  0  0  0  0  0  0  0  0  0
   -0.5804    0.2603    1.6949 C   0  0  0  0  0  0  0  0  0  0  0  0
   -1.1219   -1.0552    2.2382 C   0  0  0  0  0  0  0  0  0  0  0  0
    3.9042   -2.3115    0.5397 H   0  0  0  0  0  0  0  0  0  0  0  0
    5.7287   -0.9331    1.4350 H   0  0  0  0  0  0  0  0  0  0  0  0
    7.4943    0.7339    0.9811 H   0  0  0  0  0  0  0  0  0  0  0  0
    7.4364    1.7409   -0.4646 H   0  0  0  0  0  0  0  0  0  0  0  0
    6.3998    2.1363    0.9294 H   0  0  0  0  0  0  0  0  0  0  0  0
    5.4437    1.6734   -1.9855 H   0  0  0  0  0  0  0  0  0  0  0  0
    3.6166    0.2984   -2.8838 H   0  0  0  0  0  0  0  0  0  0  0  0
    2.9588   -2.6593   -2.5068 H   0  0  0  0  0  0  0  0  0  0  0  0
    2.0377   -2.5914   -1.0152 H   0  0  0  0  0  0  0  0  0  0  0  0
    1.1181   -0.9020    0.2085 H   0  0  0  0  0  0  0  0  0  0  0  0
   -2.2665    1.4327   -2.5110 H   0  0  0  0  0  0  0  0  0  0  0  0
   -3.2280    2.3530   -0.6083 H   0  0  0  0  0  0  0  0  0  0  0  0
   -2.1697    2.5104    0.7668 H   0  0  0  0  0  0  0  0  0  0  0  0
   -5.1869    2.3611    1.1225 H   0  0  0  0  0  0  0  0  0  0  0  0
   -3.8900    2.5685    2.2952 H   0  0  0  0  0  0  0  0  0  0  0  0
   -6.1175    1.5381    3.0970 H   0  0  0  0  0  0  0  0  0  0  0  0
   -4.6140    0.8719    3.7006 H   0  0  0  0  0  0  0  0  0  0  0  0
   -4.7092   -1.0630    2.5334 H   0  0  0  0  0  0  0  0  0  0  0  0
   -5.9613   -1.4205    0.3698 H   0  0  0  0  0  0  0  0  0  0  0  0
   -6.5062    0.2557    0.4486 H   0  0  0  0  0  0  0  0  0  0  0  0
   -3.7721   -0.8478   -0.0972 H   0  0  0  0  0  0  0  0  0  0  0  0
   -4.6426    0.4804   -0.8642 H   0  0  0  0  0  0  0  0  0  0  0  0
   -8.3016   -0.8366    1.5906 H   0  0  0  0  0  0  0  0  0  0  0  0
   -8.8198   -0.8187    3.2830 H   0  0  0  0  0  0  0  0  0  0  0  0
   -8.0667    0.6063    2.5975 H   0  0  0  0  0  0  0  0  0  0  0  0
   -7.5416   -2.8454    3.6511 H   0  0  0  0  0  0  0  0  0  0  0  0
   -5.8010   -2.8501    3.4325 H   0  0  0  0  0  0  0  0  0  0  0  0
   -6.8666   -2.8631    2.0100 H   0  0  0  0  0  0  0  0  0  0  0  0
    0.4481    0.3986    2.0534 H   0  0  0  0  0  0  0  0  0  0  0  0
   -1.1435    1.0965    2.1189 H   0  0  0  0  0  0  0  0  0  0  0  0
   -1.1457   -1.0298    3.3320 H   0  0  0  0  0  0  0  0  0  0  0  0
   -0.4921   -1.8978    1.9354 H   0  0  0  0  0  0  0  0  0  0  0  0
   -2.1353   -1.2553    1.8799 H   0  0  0  0  0  0  0  0  0  0  0  0
  1  2  2  0
  2  3  1  0
  3  4  2  0
  4  5  1  0
  4  6  1  0
  6  7  2  0
  1  8  1  0
  8  9  1  0
  9 10  1  0
 10 11  2  0
 11 12  1  0
 12 13  1  0
 13 14  2  0
 14 15  1  0
 15 16  2  0
 13 17  1  0
 17 18  1  0
 18 19  1  0
 19 20  1  0
 20 21  1  0
 21 22  1  0
 22 23  1  0
 21 24  1  0
 24 25  1  0
 24 26  1  0
 12 27  1  0
 27 28  1  0
  7  1  1  0
 15 10  1  0
 23 18  1  0
  2 29  1  0
  3 30  1  0
  5 31  1  0
  5 32  1  0
  5 33  1  0
  6 34  1  0
  7 35  1  0
  8 36  1  0
  8 37  1  0
 11 38  1  0
 14 39  1  0
 17 40  1  0
 17 41  1  0
 19 42  1  0
 19 43  1  0
 20 44  1  0
 20 45  1  0
 21 46  1  0
 22 47  1  0
 22 48  1  0
 23 49  1  0
 23 50  1  0
 25 51  1  0
 25 52  1  0
 25 53  1  0
 26 54  1  0
 26 55  1  0
 26 56  1  0
 27 57  1  0
 27 58  1  0
 28 59  1  0
 28 60  1  0
 28 61  1  0
M  END
>  <mol_id>  (49) 
MCULE-2656552248

>  <drugclip_rank>  (49) 
49

>  <conformer>  (49) 
11

>  <align_rmsd>  (49) 
0.226

$$$$
MCULE-4412719064
     RDKit          3D

 62 64  0  0  0  0  0  0  0  0999 V2000
    4.6779   -1.8575   -1.0798 C   0  0  0  0  0  0  0  0  0  0  0  0
    5.8417   -1.1772   -0.7133 C   0  0  0  0  0  0  0  0  0  0  0  0
    6.1559    0.0287   -1.3433 C   0  0  0  0  0  0  0  0  0  0  0  0
    5.3278    0.5479   -2.3378 C   0  0  0  0  0  0  0  0  0  0  0  0
    4.1695   -0.1346   -2.7036 C   0  0  0  0  0  0  0  0  0  0  0  0
    3.8222   -1.3346   -2.0671 C   0  0  0  0  0  0  0  0  0  0  0  0
    2.5754   -2.0954   -2.4636 C   0  0  0  0  0  0  0  0  0  0  0  0
    1.4998   -1.2539   -2.8779 O   0  0  0  0  0  0  0  0  0  0  0  0
    0.7491   -0.5939   -1.9309 C   0  0  0  0  0  0  0  0  0  0  0  0
    0.9168   -0.5990   -0.5963 C   0  0  0  0  0  0  0  0  0  0  0  0
    0.1422    0.0912    0.3410 N   0  0  0  0  0  0  0  0  0  0  0  0
   -0.9250    0.8895   -0.1287 C   0  0  0  0  0  0  0  0  0  0  0  0
   -1.1950    0.9839   -1.4449 C   0  0  0  0  0  0  0  0  0  0  0  0
   -0.3847    0.2413   -2.4356 C   0  0  0  0  0  0  0  0  0  0  0  0
   -0.6566    0.3330   -3.6302 O   0  0  0  0  0  0  0  0  0  0  0  0
   -1.7779    1.7205    0.8323 C   0  0  0  0  0  0  0  0  0  0  0  0
   -2.5968    0.9337    1.7725 N   0  0  0  0  0  0  0  0  0  0  0  0
   -3.1961    1.7859    2.8091 C   0  0  0  0  0  0  0  0  0  0  0  0
   -4.6865    2.0446    2.6017 C   0  0  0  0  0  0  0  0  0  0  0  0
   -5.4912    0.7260    2.6645 C   0  0  0  0  0  0  0  0  0  0  0  0
   -4.6808   -0.4085    1.9906 C   0  0  0  0  0  0  0  0  0  0  0  0
   -3.5954    0.1220    1.0557 C   0  0  0  0  0  0  0  0  0  0  0  0
   -6.8653    0.8445    2.1012 N   0  0  0  0  0  0  0  0  0  0  0  0
   -7.7002   -0.3028    2.4905 C   0  0  0  0  0  0  0  0  0  0  0  0
   -7.5573    2.0697    2.5195 C   0  0  0  0  0  0  0  0  0  0  0  0
    0.4615   -0.0595    1.7775 C   0  0  0  0  0  0  0  0  0  0  0  0
   -0.0688   -1.3784    2.3237 C   0  0  0  0  0  0  0  0  0  0  0  0
    6.7424   -1.5756    0.2361 O   0  0  0  0  0  0  0  0  0  0  0  0
    6.5225   -2.8413    0.8433 C   0  0  0  0  0  0  0  0  0  0  0  0
    4.4114   -2.7982   -0.6083 H   0  0  0  0  0  0  0  0  0  0  0  0
    7.0587    0.5648   -1.0609 H   0  0  0  0  0  0  0  0  0  0  0  0
    5.5857    1.4835   -2.8275 H   0  0  0  0  0  0  0  0  0  0  0  0
    3.5322    0.2784   -3.4845 H   0  0  0  0  0  0  0  0  0  0  0  0
    2.2398   -2.7783   -1.6731 H   0  0  0  0  0  0  0  0  0  0  0  0
    2.8345   -2.7234   -3.3242 H   0  0  0  0  0  0  0  0  0  0  0  0
    1.7155   -1.1647   -0.1314 H   0  0  0  0  0  0  0  0  0  0  0  0
   -1.9952    1.5895   -1.8497 H   0  0  0  0  0  0  0  0  0  0  0  0
   -1.0849    2.3660    1.3890 H   0  0  0  0  0  0  0  0  0  0  0  0
   -2.4251    2.4124    0.2747 H   0  0  0  0  0  0  0  0  0  0  0  0
   -2.6694    2.7433    2.9053 H   0  0  0  0  0  0  0  0  0  0  0  0
   -3.0580    1.2811    3.7739 H   0  0  0  0  0  0  0  0  0  0  0  0
   -5.0393    2.7333    3.3796 H   0  0  0  0  0  0  0  0  0  0  0  0
   -4.8321    2.5504    1.6378 H   0  0  0  0  0  0  0  0  0  0  0  0
   -5.5894    0.4683    3.7295 H   0  0  0  0  0  0  0  0  0  0  0  0
   -4.2167   -1.0256    2.7725 H   0  0  0  0  0  0  0  0  0  0  0  0
   -5.3168   -1.0916    1.4181 H   0  0  0  0  0  0  0  0  0  0  0  0
   -3.0961   -0.7341    0.5877 H   0  0  0  0  0  0  0  0  0  0  0  0
   -4.0743    0.6946    0.2504 H   0  0  0  0  0  0  0  0  0  0  0  0
   -8.6936   -0.2249    2.0328 H   0  0  0  0  0  0  0  0  0  0  0  0
   -7.2878   -1.2547    2.1448 H   0  0  0  0  0  0  0  0  0  0  0  0
   -7.8292   -0.3621    3.5771 H   0  0  0  0  0  0  0  0  0  0  0  0
   -7.6141    2.1581    3.6106 H   0  0  0  0  0  0  0  0  0  0  0  0
   -7.0708    2.9631    2.1169 H   0  0  0  0  0  0  0  0  0  0  0  0
   -8.5796    2.0916    2.1208 H   0  0  0  0  0  0  0  0  0  0  0  0
    0.0803    0.7712    2.3774 H   0  0  0  0  0  0  0  0  0  0  0  0
    1.5512   -0.0303    1.9105 H   0  0  0  0  0  0  0  0  0  0  0  0
    0.1772   -1.4724    3.3867 H   0  0  0  0  0  0  0  0  0  0  0  0
    0.3735   -2.2327    1.8005 H   0  0  0  0  0  0  0  0  0  0  0  0
   -1.1551   -1.4523    2.2187 H   0  0  0  0  0  0  0  0  0  0  0  0
    5.5891   -2.8473    1.4154 H   0  0  0  0  0  0  0  0  0  0  0  0
    7.3431   -3.0222    1.5439 H   0  0  0  0  0  0  0  0  0  0  0  0
    6.5363   -3.6448    0.0998 H   0  0  0  0  0  0  0  0  0  0  0  0
  1  2  2  0
  2  3  1  0
  3  4  2  0
  4  5  1  0
  5  6  2  0
  6  7  1  0
  7  8  1  0
  8  9  1  0
  9 10  2  0
 10 11  1  0
 11 12  1  0
 12 13  2  0
 13 14  1  0
 14 15  2  0
 12 16  1  0
 16 17  1  0
 17 18  1  0
 18 19  1  0
 19 20  1  0
 20 21  1  0
 21 22  1  0
 20 23  1  0
 23 24  1  0
 23 25  1  0
 11 26  1  0
 26 27  1  0
  2 28  1  0
 28 29  1  0
  6  1  1  0
 14  9  1  0
 22 17  1  0
  1 30  1  0
  3 31  1  0
  4 32  1  0
  5 33  1  0
  7 34  1  0
  7 35  1  0
 10 36  1  0
 13 37  1  0
 16 38  1  0
 16 39  1  0
 18 40  1  0
 18 41  1  0
 19 42  1  0
 19 43  1  0
 20 44  1  0
 21 45  1  0
 21 46  1  0
 22 47  1  0
 22 48  1  0
 24 49  1  0
 24 50  1  0
 24 51  1  0
 25 52  1  0
 25 53  1  0
 25 54  1  0
 26 55  1  0
 26 56  1  0
 27 57  1  0
 27 58  1  0
 27 59  1  0
 29 60  1  0
 29 61  1  0
 29 62  1  0
M  END
>  <mol_id>  (50) 
MCULE-4412719064

>  <drugclip_rank>  (50) 
50

>  <conformer>  (50) 
33

>  <align_rmsd>  (50) 
1.158

$$$$
