OSSM_117313
     RDKit          3D

 33 38  0  0  0  0  0  0  0  0999 V2000
    6.7180    0.6198    2.0507 C   0  0  0  0  0  0  0  0  0  0  0  0
    8.0604    0.5803    2.7850 C   0  0  0  0  0  0  0  0  0  0  0  0
    9.2045    0.9344    1.8491 C   0  0  0  0  0  0  0  0  0  0  0  0
    9.2592   -0.0401    0.6735 C   0  0  0  0  0  0  0  0  0  0  0  0
    7.9070   -0.3295    0.0705 C   0  0  0  0  0  0  0  0  0  0  0  0
    7.9474   -0.9924   -1.2563 C   0  0  0  0  0  0  0  0  0  0  0  0
    6.7315   -1.2641   -1.8556 O   0  0  0  0  0  0  0  0  0  0  0  0
    9.0066   -1.2969   -1.7950 O   0  0  0  0  0  0  0  0  0  0  0  0
    6.7464   -0.0103    0.6757 C   0  0  0  0  0  0  0  0  0  0  0  0
    5.4746   -0.2814   -0.0174 C   0  0  0  0  0  0  0  0  0  0  0  0
    5.5001   -0.9136   -1.2626 C   0  0  0  0  0  0  0  0  0  0  0  0
    4.2233    0.0761    0.5002 C   0  0  0  0  0  0  0  0  0  0  0  0
    3.0390   -0.1913   -0.2079 C   0  0  0  0  0  0  0  0  0  0  0  0
    3.1015   -0.8510   -1.4396 C   0  0  0  0  0  0  0  0  0  0  0  0
    4.3351   -1.2243   -1.9870 C   0  0  0  0  0  0  0  0  0  0  0  0
    4.4274   -1.8820   -3.3359 C   0  0  0  0  0  0  0  0  0  0  0  0
    1.9720   -1.1182   -2.1675 O   0  0  0  0  0  0  0  0  0  0  0  0
    0.7396   -0.9721   -1.4465 C   0  0  0  0  0  0  0  0  0  0  0  0
    0.6727    0.2569   -0.6644 N   0  0  0  0  0  0  0  0  0  0  0  0
    1.7038    0.1968    0.3706 C   0  0  0  0  0  0  0  0  0  0  0  0
   -0.6552    0.5964   -0.1173 C   0  0  0  0  0  0  0  0  0  0  0  0
   -1.6644    0.9544   -1.2165 C   0  0  0  0  0  0  0  0  0  0  0  0
   -2.9475    1.5440   -0.6089 C   0  0  0  0  0  0  0  0  0  0  0  0
   -1.2767   -0.4331    0.8534 C   0  0  0  0  0  0  0  0  0  0  0  0
   -2.8097   -0.3532    0.9113 C   0  0  0  0  0  0  0  0  0  0  0  0
   -3.2547    1.0198    0.7255 N   0  0  0  0  0  0  0  0  0  0  0  0
   -4.6275    1.2903    1.1711 C   0  0  0  0  0  0  0  0  0  0  0  0
   -5.7379    0.5406    0.4634 C   0  0  0  0  0  0  0  0  0  0  0  0
   -6.4108    1.1174   -0.6244 C   0  0  0  0  0  0  0  0  0  0  0  0
   -7.4352    0.4280   -1.2761 C   0  0  0  0  0  0  0  0  0  0  0  0
   -7.8036   -0.8444   -0.8453 C   0  0  0  0  0  0  0  0  0  0  0  0
   -7.1513   -1.4268    0.2391 C   0  0  0  0  0  0  0  0  0  0  0  0
   -6.1266   -0.7381    0.8910 C   0  0  0  0  0  0  0  0  0  0  0  0
  1  2  1  0
  2  3  1  0
  3  4  1  0
  4  5  1  0
  5  6  1  0
  6  7  1  0
  6  8  2  0
  5  9  2  0
  9 10  1  0
 10 11  2  0
 10 12  1  0
 12 13  2  0
 13 14  1  0
 14 15  2  0
 15 16  1  0
 14 17  1  0
 17 18  1  0
 18 19  1  0
 19 20  1  0
 19 21  1  0
 21 22  1  0
 22 23  1  0
 21 24  1  0
 24 25  1  0
 25 26  1  0
 26 27  1  0
 27 28  1  0
 28 29  2  0
 29 30  1  0
 30 31  2  0
 31 32  1  0
 32 33  2  0
  9  1  1  0
 11  7  1  0
 15 11  1  0
 20 13  1  0
 26 23  1  0
 33 28  1  0
M  END
>  <mol_id>  (1) 
OSSM_117313

>  <drugclip_rank>  (1) 
3

>  <conformer>  (1) 
29

>  <align_rmsd>  (1) 
0.579

$$$$
