5IUB_6DV_A2401
     RDKit          3D

 32 36  0  0  0  0  0  0  0  0999 V2000
   -0.1290  103.8120   56.9420 C   0  0  0  0  0  0  0  0  0  0  0  0
   -0.2870  102.0390   54.7340 C   0  0  0  0  0  0  0  0  0  0  0  0
   -2.3550  105.9180   55.1520 C   0  0  0  0  0  0  0  0  0  0  0  0
   -3.9620  107.1040   56.5140 C   0  0  0  0  0  0  0  0  0  0  0  0
   -2.8870  105.1110   57.3710 C   0  0  0  0  0  0  0  0  0  0  0  0
    0.0860   94.4560   51.7950 C   0  0  0  0  0  0  0  0  0  0  0  0
    1.1490   96.0190   52.7320 C   0  0  0  0  0  0  0  0  0  0  0  0
   -3.7820  106.1710   57.5380 C   0  0  0  0  0  0  0  0  0  0  0  0
   -3.2490  106.9760   55.3220 C   0  0  0  0  0  0  0  0  0  0  0  0
   -0.7810  103.4960   54.6820 C   0  0  0  0  0  0  0  0  0  0  0  0
   -2.1610  104.9720   56.1720 C   0  0  0  0  0  0  0  0  0  0  0  0
   -1.6540   98.2930   52.1090 N   0  0  0  0  0  0  0  0  0  0  0  0
   -0.4340   97.7890   52.5220 C   0  0  0  0  0  0  0  0  0  0  0  0
    0.4230   98.6290   53.1520 N   0  0  0  0  0  0  0  0  0  0  0  0
    1.6170   98.1050   53.5480 C   0  0  0  0  0  0  0  0  0  0  0  0
    2.5400   98.9290   54.2050 N   0  0  0  0  0  0  0  0  0  0  0  0
    2.2780  100.3440   54.4120 C   0  0  0  0  0  0  0  0  0  0  0  0
    1.4410  100.6030   55.6740 C   0  0  0  0  0  0  0  0  0  0  0  0
    0.5000  102.3990   56.9690 C   0  0  0  0  0  0  0  0  0  0  0  0
   -4.8290  108.1320   56.6690 F   0  0  0  0  0  0  0  0  0  0  0  0
   -2.7370  104.2250   58.3850 F   0  0  0  0  0  0  0  0  0  0  0  0
    2.0240   96.8170   53.3630 N   0  0  0  0  0  0  0  0  0  0  0  0
    1.2380   94.7100   52.3970 N   0  0  0  0  0  0  0  0  0  0  0  0
   -0.7670   95.4690   51.7000 N   0  0  0  0  0  0  0  0  0  0  0  0
   -0.0840   96.4830   52.3040 N   0  0  0  0  0  0  0  0  0  0  0  0
   -0.2040   93.0940   51.2750 C   0  0  0  0  0  0  0  0  0  0  0  0
    0.5970   91.9730   51.0460 C   0  0  0  0  0  0  0  0  0  0  0  0
   -0.2260   90.9570   50.5480 C   0  0  0  0  0  0  0  0  0  0  0  0
   -1.4960   91.5030   50.4980 C   0  0  0  0  0  0  0  0  0  0  0  0
   -1.4870   92.7880   50.9360 O   0  0  0  0  0  0  0  0  0  0  0  0
   -1.2590  103.8990   56.0090 N   0  0  0  0  0  0  0  0  0  0  0  0
    0.8670  101.9390   55.6330 N   0  0  0  0  0  0  0  0  0  0  0  0
  8  5  1  0
  8  4  2  0
  9  4  1  0
  9  3  2  0
 10  2  1  0
 11  5  2  0
 11  3  1  0
 13 12  1  0
 14 13  2  0
 15 14  1  0
 16 15  1  0
 17 16  1  0
 18 17  1  0
 19  1  1  0
 20  4  1  0
 21  5  1  0
 22  7  1  0
 22 15  2  0
 23  7  2  0
 23  6  1  0
 24  6  2  0
 25 24  1  0
 25 13  1  0
 25  7  1  0
 26  6  1  0
 27 26  2  0
 28 27  1  0
 29 28  2  0
 30 29  1  0
 30 26  1  0
 31 10  1  0
 31 11  1  0
 31  1  1  0
 32 19  1  0
 32 18  1  0
 32  2  1  0
M  END
>  <_TriposChargeType>  (1) 
GASTEIGER

$$$$
