10KT_A1C5S_A1202
     RDKit          3D

 30 34  0  0  0  0  0  0  0  0999 V2000
   -1.4730   97.5680   51.9000 N   0  0  0  0  0  0  0  0  0  0  0  0
   -0.5690   96.5880   51.9700 C   0  0  0  0  0  0  0  0  0  0  0  0
   -0.8740   95.3820   51.4880 N   0  0  0  0  0  0  0  0  0  0  0  0
    0.0770   94.3780   51.5360 C   0  0  0  0  0  0  0  0  0  0  0  0
   -0.2550   93.1030   51.0530 C   0  0  0  0  0  0  0  0  0  0  0  0
   -1.5610   92.9300   50.6930 O   0  0  0  0  0  0  0  0  0  0  0  0
   -1.9580   91.6310   50.2630 C   0  0  0  0  0  0  0  0  0  0  0  0
    0.6930   92.0900   51.0340 C   0  0  0  0  0  0  0  0  0  0  0  0
    1.9700   92.3270   51.5170 C   0  0  0  0  0  0  0  0  0  0  0  0
    2.3090   93.5650   52.0350 C   0  0  0  0  0  0  0  0  0  0  0  0
    1.3640   94.5890   52.0540 C   0  0  0  0  0  0  0  0  0  0  0  0
    0.6730   96.8500   52.5420 N   0  0  0  0  0  0  0  0  0  0  0  0
    1.6480   95.8950   52.6020 C   0  0  0  0  0  0  0  0  0  0  0  0
    2.6930   96.3750   53.2530 N   0  0  0  0  0  0  0  0  0  0  0  0
    1.0910   97.9950   53.1670 N   0  0  0  0  0  0  0  0  0  0  0  0
    2.3010   97.6480   53.5760 C   0  0  0  0  0  0  0  0  0  0  0  0
    3.1830   98.5780   54.3400 C   0  0  0  0  0  0  0  0  0  0  0  0
    2.2830   99.7110   54.8350 C   0  0  0  0  0  0  0  0  0  0  0  0
    3.8770   97.8680   55.5080 C   0  0  0  0  0  0  0  0  0  0  0  0
    4.6090   98.8690   56.3960 C   0  0  0  0  0  0  0  0  0  0  0  0
    3.6810   99.9640   56.8990 C   0  0  0  0  0  0  0  0  0  0  0  0
    2.6770   99.4600   57.9200 C   0  0  0  0  0  0  0  0  0  0  0  0
    3.0060  100.5960   55.7490 N   0  0  0  0  0  0  0  0  0  0  0  0
    2.4310  101.7990   55.9890 C   0  0  0  0  0  0  0  0  0  0  0  0
    1.0850  102.0240   55.9530 C   0  0  0  0  0  0  0  0  0  0  0  0
    3.0190  103.0280   56.3040 C   0  0  0  0  0  0  0  0  0  0  0  0
    2.0970  103.9630   56.4530 N   0  0  0  0  0  0  0  0  0  0  0  0
    0.9190  103.3280   56.2360 N   0  0  0  0  0  0  0  0  0  0  0  0
   -0.3600  104.0330   56.3190 C   0  0  0  0  0  0  0  0  0  0  0  0
   -1.2470  103.7290   55.1350 C   0  0  0  0  0  0  0  0  0  0  0  0
  2  1  1  0
  3  2  2  0
  4  3  1  0
  5  4  2  0
  6  5  1  0
  7  6  1  0
  8  5  1  0
  9  8  2  0
 10  9  1  0
 11 10  2  0
 11  4  1  0
 12  2  1  0
 13 12  1  0
 13 11  1  0
 14 13  2  0
 15 12  1  0
 16 15  2  0
 16 14  1  0
 17 16  1  0
 18 17  1  0
 19 17  1  0
 20 19  1  0
 21 20  1  0
 21 22  1  0
 23 21  1  0
 23 18  1  0
 24 23  1  0
 25 24  2  0
 26 24  1  0
 27 26  2  0
 28 25  1  0
 28 27  1  0
 29 28  1  0
 30 29  1  0
M  END
>  <_TriposChargeType>  (1) 
GASTEIGER

$$$$
