@<TRIPOS>MOLECULE
1XP1_AIH_A600
 34 38 0 0 0
SMALL
GASTEIGER

@<TRIPOS>ATOM
      1 C          23.7410  -13.1540    7.1210 C.3     1  UNL1        0.1184
      2 C          24.9710  -12.6160    6.3440 C.3     1  UNL1        0.2023
      3 O          24.6960  -12.8020    4.9340 O.3     1  UNL1       -0.4730
      4 C          23.5850  -12.2780    4.3270 C.ar    1  UNL1        0.1447
      5 C          23.7380  -11.9190    2.9970 C.ar    1  UNL1        0.0407
      6 C          22.6880  -11.3490    2.2790 C.ar    1  UNL1        0.0452
      7 C          21.4210  -11.2150    2.9120 C.ar    1  UNL1        0.1964
      8 O          20.4250  -10.6630    2.1660 O.3     1  UNL1       -0.2866
      9 C          21.2750  -11.5920    4.2550 C.ar    1  UNL1        0.0512
     10 C          22.3540  -12.0580    5.0050 C.ar    1  UNL1        0.0628
     11 S          22.2170  -12.4860    6.4560 S.3     1  UNL1       -0.1029
     12 C          24.0700  -12.9170    8.5810 C.ar    1  UNL1       -0.0081
     13 C          23.6230  -11.8120    9.3160 C.ar    1  UNL1       -0.0000
     14 C          24.0130  -11.7440   10.6610 C.ar    1  UNL1        0.0417
     15 C          24.8360  -12.7360   11.2500 C.ar    1  UNL1        0.1957
     16 O          25.2240  -12.6270   12.5400 O.3     1  UNL1       -0.2866
     17 C          25.2710  -13.8440   10.5130 C.ar    1  UNL1        0.0417
     18 C          24.8830  -13.9070    9.1570 C.ar    1  UNL1       -0.0000
     19 C          25.3900  -11.1510    6.5540 C.ar    1  UNL1        0.0186
     20 C          26.7830  -10.9090    6.6700 C.ar    1  UNL1        0.0023
     21 C          27.3000   -9.6250    6.8740 C.ar    1  UNL1        0.0367
     22 C          26.3950   -8.5330    6.9210 C.ar    1  UNL1        0.1386
     23 C          25.0380   -8.7640    6.8300 C.ar    1  UNL1        0.0367
     24 C          24.5140  -10.0820    6.6530 C.ar    1  UNL1        0.0023
     25 O          26.8620   -7.2740    7.1210 O.3     1  UNL1       -0.4740
     26 C          28.2620   -6.9640    7.0100 C.3     1  UNL1        0.2226
     27 C          28.4850   -5.4430    7.1290 C.3     1  UNL1        0.1200
     28 N          27.8580   -4.5970    6.0840 N.3     1  UNL1       -0.2696
     29 C          28.1720   -3.2060    6.4890 C.3     1  UNL1        0.0722
     30 C          27.1750   -2.4010    5.6270 C.3     1  UNL1        0.0173
     31 C          27.1030   -0.9220    6.0080 C.3     1  UNL1        0.0015
     32 C          25.8800   -3.1720    5.9360 C.3     1  UNL1        0.0173
     33 C          24.8760   -2.9760    4.7990 C.3     1  UNL1        0.0015
     34 C          26.3730   -4.6380    6.0730 C.3     1  UNL1        0.0722
@<TRIPOS>BOND
     1     2     1    1
     2     3     2    1
     3     4     3    1
     4     5     4   ar
     5     6     5   ar
     6     7     6   ar
     7     8     7    1
     8     9     7   ar
     9    10     9   ar
    10    10     4   ar
    11    11    10    1
    12    11     1    1
    13     1    12    1
    14    13    12   ar
    15    14    13   ar
    16    15    14   ar
    17    16    15    1
    18    17    15   ar
    19    18    17   ar
    20    18    12   ar
    21     2    19    1
    22    20    19   ar
    23    21    20   ar
    24    22    21   ar
    25    23    22   ar
    26    24    19   ar
    27    24    23   ar
    28    25    22    1
    29    26    25    1
    30    27    26    1
    31    28    27    1
    32    29    28    1
    33    30    29    1
    34    30    31    1
    35    32    30    1
    36    32    33    1
    37    34    32    1
    38    34    28    1
