@<TRIPOS>MOLECULE
2B1V_458_B202
 19 21 0 0 0
SMALL
GASTEIGER

@<TRIPOS>ATOM
      1 C          24.6710  -11.9250    9.5660 C.3     1  UNL1        0.0121
      2 C          23.9050  -11.4620    8.3090 C.3     1  UNL1        0.0496
      3 C          24.8710  -10.5750    7.5900 C.2     1  UNL1       -0.0458
      4 C          24.4510   -9.2170    7.0230 C.3     1  UNL1        0.0261
      5 C          26.1640  -11.0640    7.4850 C.2     1  UNL1       -0.0344
      6 C          26.6130  -12.2880    7.9840 C.3     1  UNL1        0.0303
      7 C          25.7110  -12.9300    9.0690 C.3     1  UNL1        0.0624
      8 C          26.5830  -13.4890   10.2140 C.3     1  UNL1        0.1847
      9 O          27.3560  -12.4350   10.8340 O.3     1  UNL1       -0.2203
     10 C          24.9330  -14.0580    8.4320 C.3     1  UNL1        0.1452
     11 O          24.5950  -13.5490    7.1240 O.3     1  UNL1       -0.3514
     12 C          23.5380  -12.6330    7.3370 C.3     1  UNL1        0.1410
     13 C          22.9250  -12.1210    6.0150 C.ar    1  UNL1        0.0050
     14 C          23.7410  -11.7760    4.9140 C.ar    1  UNL1        0.0013
     15 C          23.1420  -11.3140    3.7280 C.ar    1  UNL1        0.0418
     16 C          21.7320  -11.2220    3.6660 C.ar    1  UNL1        0.1957
     17 O          21.1560  -10.7740    2.5200 O.3     1  UNL1       -0.2866
     18 C          20.9110  -11.5620    4.7610 C.ar    1  UNL1        0.0418
     19 C          21.5250  -12.0150    5.9570 C.ar    1  UNL1        0.0013
@<TRIPOS>BOND
     1     2     1    1
     2     2     3    1
     3     4     3    1
     4     5     3    2
     5     6     5    1
     6     7     6    1
     7     7     1    1
     8     7     8    1
     9     9     8    1
    10    10     7    1
    11    11    10    1
    12    12    11    1
    13    12     2    1
    14    12    13    1
    15    14    13   ar
    16    15    14   ar
    17    16    15   ar
    18    17    16    1
    19    18    16   ar
    20    19    18   ar
    21    19    13   ar
