@<TRIPOS>MOLECULE
2QZO_KN1_B1
 24 26 0 0 0
SMALL
GASTEIGER

@<TRIPOS>ATOM
      1 C          23.2100  -16.1120    8.7210 C.2     1  UNL1       -0.0029
      2 C          23.7630  -14.8840    9.1120 C.2     1  UNL1        0.0000
      3 C          23.0640  -13.6760    9.2240 C.3     1  UNL1        0.1535
      4 N          23.3770  -12.7730    8.1180 N.ar    1  UNL1       -0.2465
      5 N          22.6920  -12.8430    7.0830 N.ar    1  UNL1       -0.1689
      6 C          24.3930  -11.8850    8.0230 C.ar    1  UNL1        0.0836
      7 C          25.4330  -11.4180    8.8820 C.ar    1  UNL1        0.0887
      8 C          25.6270  -11.9390   10.3180 C.3     1  UNL1        0.4200
      9 F          24.4940  -11.6440   10.9940 F       1  UNL1       -0.1658
     10 F          25.9020  -13.2380   10.4280 F       1  UNL1       -0.1658
     11 F          26.5910  -11.2560   10.9290 F       1  UNL1       -0.1658
     12 C          26.2860  -10.4110    8.3990 C.ar    1  UNL1        0.0054
     13 C          26.1430   -9.8750    7.1280 C.ar    1  UNL1        0.0001
     14 C          25.1250  -10.3390    6.2970 C.ar    1  UNL1        0.0030
     15 C          24.2590  -11.3450    6.7490 C.ar    1  UNL1        0.0367
     16 C          23.1580  -11.9960    6.1670 C.ar    1  UNL1        0.1054
     17 C          22.5830  -11.7740    4.9180 C.ar    1  UNL1        0.0585
     18 C          23.2660  -11.2870    3.8290 C.ar    1  UNL1        0.0080
     19 C          22.6360  -11.0320    2.6090 C.ar    1  UNL1        0.0423
     20 C          21.2510  -11.2210    2.4710 C.ar    1  UNL1        0.1989
     21 O          20.5900  -10.9870    1.3390 O.3     1  UNL1       -0.2865
     22 C          20.5650  -11.7110    3.5640 C.ar    1  UNL1        0.0841
     23 C          21.1760  -11.9700    4.7610 C.ar    1  UNL1        0.2003
     24 O          20.4170  -12.4370    5.8030 O.3     1  UNL1       -0.2864
@<TRIPOS>BOND
     1     2     1    2
     2     3     2    1
     3     4     3    1
     4     5     4   ar
     5     6     4   ar
     6     7     6   ar
     7     8     7    1
     8     8     9    1
     9    10     8    1
    10    11     8    1
    11    12     7   ar
    12    13    12   ar
    13    14    13   ar
    14    15     6   ar
    15    15    14   ar
    16    16    15   ar
    17    16     5   ar
    18    17    16    1
    19    18    17   ar
    20    19    18   ar
    21    20    19   ar
    22    21    20    1
    23    22    20   ar
    24    23    22   ar
    25    23    17   ar
    26    24    23    1
