@<TRIPOS>MOLECULE
4MGA_27L_B601
 15 15 0 0 0
SMALL
GASTEIGER

@<TRIPOS>ATOM
      1 C          26.7060  -10.0170    7.7660 C.3     1  UNL1        0.0000
      2 C          25.1980  -10.2350    7.6600 C.3     1  UNL1        0.0003
      3 C          24.6040   -9.3770    6.5500 C.3     1  UNL1        0.0000
      4 C          24.6490   -9.7770    9.0180 C.3     1  UNL1        0.0000
      5 C          24.9640  -11.7560    7.4890 C.3     1  UNL1        0.0040
      6 C          23.5350  -12.3160    7.2420 C.3     1  UNL1        0.0189
      7 C          22.5760  -11.9090    8.3500 C.3     1  UNL1        0.0044
      8 C          23.6300  -13.8390    7.2910 C.3     1  UNL1        0.0044
      9 C          22.9550  -11.9290    6.0030 C.ar    1  UNL1       -0.0226
     10 C          23.7250  -11.7280    4.8500 C.ar    1  UNL1       -0.0010
     11 C          23.1290  -11.3830    3.6320 C.ar    1  UNL1        0.0417
     12 C          21.7430  -11.2510    3.5600 C.ar    1  UNL1        0.1957
     13 O          21.1260  -10.9070    2.3860 O.3     1  UNL1       -0.2866
     14 C          20.9750  -11.4610    4.7000 C.ar    1  UNL1        0.0417
     15 C          21.5710  -11.8100    5.9070 C.ar    1  UNL1       -0.0010
@<TRIPOS>BOND
     1     2     1    1
     2     3     2    1
     3     4     2    1
     4     5     2    1
     5     6     5    1
     6     6     7    1
     7     8     6    1
     8     9     6    1
     9    10     9   ar
    10    11    10   ar
    11    12    11   ar
    12    13    12    1
    13    14    12   ar
    14    15    14   ar
    15    15     9   ar
