@<TRIPOS>MOLECULE
4ZNS_OFB_B601
 32 36 0 0 0
SMALL
GASTEIGER

@<TRIPOS>ATOM
      1 C          21.4830  -11.2370    3.1220 C.ar    1  UNL1        0.1957
      2 C          20.8480  -11.7980    4.1380 C.ar    1  UNL1        0.0420
      3 C          21.4880  -12.2780    5.2010 C.ar    1  UNL1        0.0030
      4 C          22.8140  -12.2220    5.3380 C.ar    1  UNL1       -0.0017
      5 C          23.4430  -11.6370    4.3070 C.ar    1  UNL1        0.0030
      6 C          22.8030  -11.1560    3.2500 C.ar    1  UNL1        0.0420
      7 O          20.8560  -10.7530    2.0560 O.3     1  UNL1       -0.2866
      8 C          23.4700  -12.6970    6.3970 C.2     1  UNL1        0.0030
      9 C          24.5980  -12.3850    7.0380 C.2     1  UNL1        0.0047
     10 C          24.6720  -13.3730    8.1800 C.3     1  UNL1        0.1630
     11 C          25.5480  -11.4500    6.9710 C.ar    1  UNL1       -0.0017
     12 C          26.8200  -11.7370    7.1750 C.ar    1  UNL1        0.0030
     13 C          27.7510  -10.8090    7.1530 C.ar    1  UNL1        0.0420
     14 C          27.4830   -9.5290    6.9670 C.ar    1  UNL1        0.1957
     15 C          26.2120   -9.2040    6.7920 C.ar    1  UNL1        0.0420
     16 C          25.2930  -10.1560    6.7960 C.ar    1  UNL1        0.0030
     17 O          28.4410   -8.5980    6.9380 O.3     1  UNL1       -0.2866
     18 C          22.9680  -13.8650    7.2290 C.3     1  UNL1        0.1395
     19 C          22.3700  -13.3410    8.5360 C.3     1  UNL1        0.0643
     20 C          23.6670  -12.8880    9.2290 C.3     1  UNL1        0.2024
     21 O          24.0800  -14.5020    7.6920 O.3     1  UNL1       -0.3480
     22 S          23.9340  -13.5060   10.9270 S.O2    1  UNL1        0.1328
     23 O          25.3320  -12.7680   11.1720 O.3     1  UNL1       -0.3442
     24 O          23.9250  -14.8620   10.7490 O.2     1  UNL1       -0.1360
     25 O          22.9010  -12.7900   11.4850 O.2     1  UNL1       -0.1360
     26 C          26.1420  -13.4700   11.9890 C.ar    1  UNL1        0.1755
     27 C          27.4100  -13.5490   11.6600 C.ar    1  UNL1        0.0694
     28 C          28.2630  -14.2030   12.4070 C.ar    1  UNL1        0.1433
     29 C          27.9210  -14.8340   13.5110 C.ar    1  UNL1        0.0298
     30 C          26.6450  -14.7780   13.8780 C.ar    1  UNL1        0.0055
     31 C          25.7850  -14.1030   13.1160 C.ar    1  UNL1        0.0400
     32 F          29.4600  -14.2070   11.9970 F       1  UNL1       -0.2041
@<TRIPOS>BOND
     1     2     1   ar
     2     3     2   ar
     3     4     3   ar
     4     5     4   ar
     5     6     1   ar
     6     6     5   ar
     7     7     1    1
     8     8     4    1
     9     9     8    2
    10    10     9    1
    11    11     9    1
    12    12    11   ar
    13    13    12   ar
    14    14    13   ar
    15    15    14   ar
    16    16    11   ar
    17    16    15   ar
    18    17    14    1
    19    18     8    1
    20    18    19    1
    21    20    19    1
    22    20    10    1
    23    21    18    1
    24    21    10    1
    25    22    20    1
    26    22    23    1
    27    24    22    2
    28    25    22    2
    29    26    23    1
    30    27    26   ar
    31    28    27   ar
    32    29    28   ar
    33    30    29   ar
    34    31    30   ar
    35    31    26   ar
    36    32    28    1
