@<TRIPOS>MOLECULE
5FQP_GQD_A1549
 27 29 0 0 0
SMALL
GASTEIGER

@<TRIPOS>ATOM
      1 C          22.8500  -14.5460    7.4320 C.3     1  UNL1        0.0177
      2 C          22.5610  -13.1280    7.9070 C.3     1  UNL1        0.0624
      3 C          21.5760  -12.4020    7.0040 C.3     1  UNL1        0.0421
      4 C          22.1780  -12.0040    5.6850 C.ar    1  UNL1       -0.0200
      5 C          21.3300  -11.7780    4.6210 C.ar    1  UNL1        0.0376
      6 C          21.8540  -11.4050    3.4030 C.ar    1  UNL1        0.1954
      7 C          23.2090  -11.2570    3.2150 C.ar    1  UNL1        0.0417
      8 C          24.0540  -11.4870    4.2820 C.ar    1  UNL1        0.0003
      9 C          23.5420  -11.8570    5.5160 C.ar    1  UNL1       -0.0073
     10 C          24.4970  -12.0800    6.6500 C.3     1  UNL1        0.1027
     11 N          23.8240  -12.3210    7.9700 N.3     1  UNL1       -0.2679
     12 C          24.7930  -12.7930    9.0030 C.3     1  UNL1        0.0725
     13 C          24.4720  -12.2360   10.3770 C.3     1  UNL1        0.0160
     14 C          25.5510  -12.6820   11.3410 C.3     1  UNL1        0.0014
     15 C          24.4030  -10.7280   10.3800 C.3     1  UNL1        0.0014
     16 C          25.4000  -10.8880    6.7920 C.ar    1  UNL1       -0.0036
     17 C          24.8680   -9.6180    6.9160 C.ar    1  UNL1       -0.0026
     18 C          25.7040   -8.5280    7.0510 C.ar    1  UNL1       -0.0003
     19 C          27.0740   -8.7030    7.0660 C.ar    1  UNL1        0.0002
     20 C          27.6060   -9.9700    6.9420 C.ar    1  UNL1       -0.0003
     21 C          26.7670  -11.0590    6.8050 C.ar    1  UNL1       -0.0026
     22 C          27.9870   -7.5730    7.2050 C.2     1  UNL1        0.0068
     23 C          27.6700   -6.3910    6.6700 C.2     1  UNL1        0.0861
     24 C          28.7320   -5.3320    6.9050 C.2     1  UNL1        0.3880
     25 O          29.7910   -5.7120    7.4780 O.co2   1  UNL1       -0.2405
     26 O          28.4270   -4.1790    6.4950 O.co2   1  UNL1       -0.2405
     27 O          21.0010  -11.1710    2.3520 O.3     1  UNL1       -0.2866
@<TRIPOS>BOND
     1     2     1    1
     2     3     2    1
     3     4     3    1
     4     5     4   ar
     5     6     5   ar
     6     7     6   ar
     7     8     7   ar
     8     9     8   ar
     9     9     4   ar
    10    10     9    1
    11    11    10    1
    12    11     2    1
    13    12    11    1
    14    13    12    1
    15    13    14    1
    16    15    13    1
    17    10    16    1
    18    17    16   ar
    19    18    17   ar
    20    19    18   ar
    21    20    19   ar
    22    21    16   ar
    23    21    20   ar
    24    22    19    1
    25    23    22    2
    26    24    23    1
    27    25    24   ar
    28    26    24   ar
    29    27     6    1
