@<TRIPOS>MOLECULE
5FQR_QHG_A1546
 26 28 0 0 0
SMALL
GASTEIGER

@<TRIPOS>ATOM
      1 C          25.1410  -13.1740   11.0000 C.3     1  UNL1        0.0014
      2 C          24.2110  -12.4910   10.0240 C.3     1  UNL1        0.0160
      3 C          24.4420  -11.0000   10.1060 C.3     1  UNL1        0.0014
      4 C          24.4870  -13.0340    8.6290 C.3     1  UNL1        0.0726
      5 N          23.5770  -12.4160    7.6290 N.3     1  UNL1       -0.2666
      6 C          22.2920  -13.1450    7.4790 C.3     1  UNL1        0.0773
      7 C          21.3560  -12.2880    6.6580 C.3     1  UNL1        0.0435
      8 C          21.9940  -11.9670    5.3360 C.ar    1  UNL1       -0.0200
      9 C          21.1750  -11.7150    4.2580 C.ar    1  UNL1        0.0376
     10 C          21.7330  -11.3930    3.0420 C.ar    1  UNL1        0.1954
     11 C          23.0960  -11.3330    2.8720 C.ar    1  UNL1        0.0417
     12 C          23.9070  -11.5880    3.9530 C.ar    1  UNL1        0.0003
     13 C          23.3650  -11.9000    5.1860 C.ar    1  UNL1       -0.0073
     14 C          24.2930  -12.1520    6.3360 C.3     1  UNL1        0.1027
     15 C          25.2480  -11.0070    6.5250 C.ar    1  UNL1       -0.0036
     16 C          24.7860   -9.7090    6.6430 C.ar    1  UNL1       -0.0026
     17 C          25.6730   -8.6630    6.8240 C.ar    1  UNL1       -0.0003
     18 C          27.0320   -8.9040    6.8880 C.ar    1  UNL1        0.0002
     19 C          27.4890  -10.1970    6.7740 C.ar    1  UNL1       -0.0003
     20 C          26.6030  -11.2410    6.5940 C.ar    1  UNL1       -0.0026
     21 C          28.0180   -7.8390    7.0830 C.2     1  UNL1        0.0068
     22 C          27.8170   -6.6200    6.5740 C.2     1  UNL1        0.0861
     23 C          28.9370   -5.6360    6.8720 C.2     1  UNL1        0.3880
     24 O          28.7720   -4.5120    6.3240 O.co2   1  UNL1       -0.2405
     25 O          29.8880   -6.0300    7.6200 O.co2   1  UNL1       -0.2405
     26 O          20.9130  -11.1260    1.9770 O.3     1  UNL1       -0.2866
@<TRIPOS>BOND
     1     2     1    1
     2     3     2    1
     3     4     2    1
     4     5     4    1
     5     6     5    1
     6     7     6    1
     7     8     7    1
     8     9     8   ar
     9    10     9   ar
    10    11    10   ar
    11    12    11   ar
    12    13    12   ar
    13    13     8   ar
    14    14    13    1
    15    14     5    1
    16    14    15    1
    17    16    15   ar
    18    17    16   ar
    19    18    17   ar
    20    19    18   ar
    21    20    15   ar
    22    20    19   ar
    23    21    18    1
    24    22    21    2
    25    23    22    1
    26    24    23   ar
    27    25    23   ar
    28    26    10    1
