@<TRIPOS>MOLECULE
5KCD_OB2_A601
 32 36 0 0 0
SMALL
GASTEIGER

@<TRIPOS>ATOM
      1 C          23.5800  -11.7070    4.2560 C.ar    1  UNL1        0.0030
      2 C          22.8880  -11.2460    3.1410 C.ar    1  UNL1        0.0420
      3 C          21.4940  -11.3580    3.0330 C.ar    1  UNL1        0.1957
      4 O          20.8520  -10.9350    1.9710 O.3     1  UNL1       -0.2866
      5 C          20.7630  -11.8880    4.0750 C.ar    1  UNL1        0.0420
      6 C          21.4460  -12.3360    5.1810 C.ar    1  UNL1        0.0030
      7 C          22.8370  -12.2620    5.2950 C.ar    1  UNL1       -0.0017
      8 C          23.4060  -12.7290    6.3900 C.2     1  UNL1        0.0030
      9 C          24.5050  -12.3950    7.1180 C.2     1  UNL1        0.0046
     10 C          25.4250  -11.4500    7.0020 C.ar    1  UNL1       -0.0017
     11 C          26.7660  -11.7630    7.1980 C.ar    1  UNL1        0.0030
     12 C          27.7280  -10.7670    7.1310 C.ar    1  UNL1        0.0420
     13 C          27.3680   -9.4370    6.9010 C.ar    1  UNL1        0.1957
     14 O          28.3040   -8.4920    6.8230 O.3     1  UNL1       -0.2866
     15 C          26.0410   -9.1100    6.7210 C.ar    1  UNL1        0.0420
     16 C          25.0750  -10.1230    6.7800 C.ar    1  UNL1        0.0030
     17 C          24.5480  -13.2000    8.2730 C.3     1  UNL1        0.1612
     18 O          24.0010  -14.3650    7.7680 O.3     1  UNL1       -0.3481
     19 C          22.8700  -13.7810    7.1900 C.3     1  UNL1        0.1394
     20 C          22.2550  -13.4140    8.5420 C.3     1  UNL1        0.0625
     21 C          23.4350  -12.7070    9.2050 C.3     1  UNL1        0.1829
     22 S          23.6310  -13.1920   10.9880 S.O2    1  UNL1        0.0580
     23 O          23.6860  -14.6150   11.0330 O.2     1  UNL1       -0.1542
     24 O          22.4880  -12.6310   11.6600 O.2     1  UNL1       -0.1542
     25 N          25.0530  -12.5370   11.3820 N.pl3   1  UNL1       -0.1925
     26 C          25.1370  -11.1110   11.1170 C.3     1  UNL1        0.1388
     27 C          26.0690  -13.2160   11.8740 C.ar    1  UNL1        0.0685
     28 C          27.3690  -12.9490   11.4350 C.ar    1  UNL1        0.0161
     29 C          28.4540  -13.6590   11.9650 C.ar    1  UNL1        0.0013
     30 C          28.2450  -14.6280   12.9370 C.ar    1  UNL1        0.0001
     31 C          26.9540  -14.9040   13.3820 C.ar    1  UNL1        0.0013
     32 C          25.8890  -14.2020   12.8520 C.ar    1  UNL1        0.0161
@<TRIPOS>BOND
     1     2     1   ar
     2     3     2   ar
     3     4     3    1
     4     5     3   ar
     5     6     5   ar
     6     7     6   ar
     7     7     1   ar
     8     8     7    1
     9     9     8    2
    10    10     9    1
    11    11    10   ar
    12    12    11   ar
    13    13    12   ar
    14    14    13    1
    15    15    13   ar
    16    16    10   ar
    17    16    15   ar
    18    17     9    1
    19    18    17    1
    20    19    18    1
    21    19     8    1
    22    19    20    1
    23    21    20    1
    24    21    17    1
    25    22    21    1
    26    23    22    2
    27    24    22    2
    28    22    25    1
    29    26    25    1
    30    27    25    1
    31    28    27   ar
    32    29    28   ar
    33    30    29   ar
    34    31    30   ar
    35    32    31   ar
    36    32    27   ar
