@<TRIPOS>MOLECULE
5KCT_OB6_B601
 34 38 0 0 0
SMALL
GASTEIGER

@<TRIPOS>ATOM
      1 C          21.5170  -11.3060    2.9690 C.ar    1  UNL1        0.1957
      2 C          22.8340  -11.2990    3.0390 C.ar    1  UNL1        0.0420
      3 C          23.4780  -11.6730    4.1270 C.ar    1  UNL1        0.0030
      4 C          22.8980  -12.1290    5.2210 C.ar    1  UNL1       -0.0017
      5 C          21.5710  -12.1400    5.1340 C.ar    1  UNL1        0.0030
      6 C          20.9080  -11.7480    4.0510 C.ar    1  UNL1        0.0420
      7 C          23.6140  -12.5070    6.3260 C.2     1  UNL1        0.0030
      8 O          20.8430  -10.9060    1.8870 O.3     1  UNL1       -0.2866
      9 C          24.8130  -12.1730    6.8750 C.2     1  UNL1        0.0046
     10 C          24.8620  -12.9930    8.1740 C.3     1  UNL1        0.1612
     11 C          23.9090  -12.2620    9.1320 C.3     1  UNL1        0.1829
     12 C          22.5940  -12.8090    8.5930 C.3     1  UNL1        0.0625
     13 C          23.0850  -13.5290    7.3420 C.3     1  UNL1        0.1394
     14 C          25.8050  -11.2840    6.6260 C.ar    1  UNL1       -0.0017
     15 C          25.5300  -10.0060    6.3890 C.ar    1  UNL1        0.0030
     16 C          26.4520   -9.0710    6.1920 C.ar    1  UNL1        0.0420
     17 C          27.7420   -9.3620    6.2330 C.ar    1  UNL1        0.1957
     18 C          28.0420  -10.6070    6.4790 C.ar    1  UNL1        0.0420
     19 C          27.1140  -11.5390    6.6770 C.ar    1  UNL1        0.0030
     20 O          28.6880   -8.4490    6.0420 O.3     1  UNL1       -0.2866
     21 O          24.1920  -14.1440    7.8830 O.3     1  UNL1       -0.3481
     22 S          24.2210  -12.4740   10.8210 S.O2    1  UNL1        0.0580
     23 N          25.7050  -11.8140   11.2180 N.pl3   1  UNL1       -0.1944
     24 C          26.0530  -10.6430   10.8620 C.ar    1  UNL1        0.0685
     25 C          26.6450  -12.6370   12.0340 C.3     1  UNL1        0.1155
     26 C          28.0510  -12.0660   12.2810 C.3     1  UNL1        0.0252
     27 C          25.4710   -9.5440   11.3350 C.ar    1  UNL1        0.0170
     28 C          25.8140   -8.3110   10.9980 C.ar    1  UNL1        0.0127
     29 C          26.7810   -8.0730   10.1230 C.ar    1  UNL1        0.0578
     30 C          27.3840   -9.1380    9.6260 C.ar    1  UNL1        0.0127
     31 C          27.0350  -10.3640    9.9860 C.ar    1  UNL1        0.0170
     32 CL         27.2180   -6.4680    9.6660 Cl      1  UNL1       -0.0822
     33 O          24.3890  -13.7890   11.1370 O.2     1  UNL1       -0.1542
     34 O          23.5000  -11.5650   11.5370 O.2     1  UNL1       -0.1542
@<TRIPOS>BOND
     1     2     1   ar
     2     3     2   ar
     3     4     3   ar
     4     5     4   ar
     5     6     5   ar
     6     6     1   ar
     7     7     4    1
     8     8     1    1
     9     9     7    2
    10    10     9    1
    11    11    10    1
    12    11    12    1
    13    13    12    1
    14    13     7    1
    15    14     9    1
    16    15    14   ar
    17    16    15   ar
    18    17    16   ar
    19    18    17   ar
    20    19    14   ar
    21    19    18   ar
    22    20    17    1
    23    21    13    1
    24    21    10    1
    25    22    11    1
    26    22    23    1
    27    24    23    1
    28    25    23    1
    29    26    25    1
    30    27    24   ar
    31    28    27   ar
    32    29    28   ar
    33    30    29   ar
    34    31    24   ar
    35    31    30   ar
    36    32    29    1
    37    33    22    2
    38    34    22    2
