@<TRIPOS>MOLECULE
5TN5_7G0_B601
 18 20 0 0 0
SMALL
GASTEIGER

@<TRIPOS>ATOM
      1 C          21.0910  -11.6040    4.3260 C.ar    1  UNL1        0.0417
      2 C          21.5920  -11.1270    3.1660 C.ar    1  UNL1        0.1957
      3 C          22.9270  -11.0000    3.0690 C.ar    1  UNL1        0.0417
      4 C          23.7400  -11.3400    4.0890 C.ar    1  UNL1       -0.0010
      5 C          23.2410  -11.8220    5.2460 C.ar    1  UNL1       -0.0223
      6 C          21.8990  -11.9460    5.3510 C.ar    1  UNL1       -0.0010
      7 O          20.7820  -10.7790    2.1240 O.3     1  UNL1       -0.2866
      8 C          24.1770  -12.1980    6.3880 C.3     1  UNL1        0.0223
      9 C          23.4560  -12.8450    7.5920 C.3     1  UNL1        0.0044
     10 C          24.5370  -13.2140    8.6110 C.3     1  UNL1        0.0028
     11 C          25.3460  -11.9910    9.0930 C.3     1  UNL1        0.0282
     12 C          26.0700  -11.3730    7.8820 C.3     1  UNL1        0.0028
     13 C          25.0420  -10.9920    6.8010 C.3     1  UNL1        0.0044
     14 C          24.1450  -13.9410    9.9020 C.3     1  UNL1        0.0027
     15 C          25.3580  -13.6930   10.8270 C.3     1  UNL1        0.0329
     16 C          26.2620  -12.6880   10.0970 C.3     1  UNL1        0.1519
     17 O          26.8340  -11.7440   10.9590 O.3     1  UNL1       -0.2232
     18 C          24.5320  -10.8990    9.8230 C.3     1  UNL1        0.0025
@<TRIPOS>BOND
     1     2     1   ar
     2     3     2   ar
     3     4     3   ar
     4     5     4   ar
     5     6     1   ar
     6     6     5   ar
     7     7     2    1
     8     8     5    1
     9     9     8    1
    10    10     9    1
    11    11    10    1
    12    12    11    1
    13    13    12    1
    14    13     8    1
    15    14    10    1
    16    15    14    1
    17    16    15    1
    18    16    11    1
    19    16    17    1
    20    11    18    1
