@<TRIPOS>MOLECULE
5U2D_OBH_A601
 31 35 0 0 0
SMALL
GASTEIGER

@<TRIPOS>ATOM
      1 C          21.3420  -12.2570    5.1440 C.ar    1  UNL1        0.0030
      2 C          20.6780  -11.7850    4.0250 C.ar    1  UNL1        0.0420
      3 C          21.3980  -11.2510    2.9650 C.ar    1  UNL1        0.1957
      4 O          20.7270  -10.8010    1.8740 O.3     1  UNL1       -0.2866
      5 C          22.7820  -11.1660    3.0410 C.ar    1  UNL1        0.0420
      6 C          23.4410  -11.6370    4.1650 C.ar    1  UNL1        0.0030
      7 C          22.7330  -12.1920    5.2320 C.ar    1  UNL1       -0.0017
      8 C          23.4400  -12.6900    6.4350 C.2     1  UNL1        0.0030
      9 C          24.5780  -12.3080    7.0580 C.2     1  UNL1        0.0046
     10 C          25.4890  -11.1460    6.9160 C.ar    1  UNL1       -0.0017
     11 C          24.9730   -9.8610    6.7670 C.ar    1  UNL1        0.0030
     12 C          25.8040   -8.7540    6.8040 C.ar    1  UNL1        0.0420
     13 C          27.1710   -8.9200    6.9790 C.ar    1  UNL1        0.1957
     14 O          27.9640   -7.8240    7.1210 O.3     1  UNL1       -0.2866
     15 C          27.7060  -10.1970    7.0770 C.ar    1  UNL1        0.0420
     16 C          26.8680  -11.3010    7.0530 C.ar    1  UNL1        0.0030
     17 C          24.7270  -13.2770    8.2050 C.3     1  UNL1        0.1619
     18 O          24.1230  -14.4790    7.7100 O.3     1  UNL1       -0.3481
     19 C          22.9130  -13.8540    7.2540 C.3     1  UNL1        0.1395
     20 C          22.3130  -13.1910    8.5160 C.3     1  UNL1        0.0632
     21 C          23.6370  -12.7560    9.1710 C.3     1  UNL1        0.1914
     22 S          23.8100  -13.3810   10.7640 S.O2    1  UNL1        0.0953
     23 O          22.8710  -12.6780   11.5700 O.2     1  UNL1       -0.1464
     24 O          23.8410  -14.8140   10.7410 O.2     1  UNL1       -0.1464
     25 O          25.2510  -12.8030   11.1560 O.3     1  UNL1       -0.2179
     26 C          26.1730  -13.5600   11.9280 C.3     1  UNL1        0.1885
     27 C          25.7330  -14.2820   13.0340 C.2     1  UNL1        0.0056
     28 C          26.6630  -14.9500   13.8160 C.2     1  UNL1       -0.0232
     29 C          28.0140  -14.8970   13.5020 C.3     1  UNL1        0.0515
     30 C          28.4370  -14.1810   12.4000 C.2     1  UNL1       -0.0232
     31 C          27.5210  -13.5140   11.6010 C.2     1  UNL1        0.0056
@<TRIPOS>BOND
     1     2     1   ar
     2     3     2   ar
     3     4     3    1
     4     5     3   ar
     5     6     5   ar
     6     7     1   ar
     7     7     6   ar
     8     8     7    1
     9     9     8    2
    10    10     9    1
    11    11    10   ar
    12    12    11   ar
    13    13    12   ar
    14    14    13    1
    15    15    13   ar
    16    16    10   ar
    17    16    15   ar
    18    17     9    1
    19    18    17    1
    20    19    18    1
    21    19     8    1
    22    19    20    1
    23    21    20    1
    24    21    17    1
    25    22    21    1
    26    23    22    2
    27    24    22    2
    28    22    25    1
    29    26    25    1
    30    27    26    1
    31    28    27    2
    32    29    28    1
    33    30    29    1
    34    31    26    1
    35    31    30    2
