@<TRIPOS>MOLECULE
5UFX_86Y_B601
 34 38 0 0 0
SMALL
GASTEIGER

@<TRIPOS>ATOM
      1 C          29.0850   -3.4360    6.7480 C.3     1  UNL1        0.0722
      2 C          28.2360   -2.6320    5.8230 C.3     1  UNL1        0.0174
      3 C          28.4860   -1.1220    6.0370 C.3     1  UNL1        0.0015
      4 C          26.8570   -3.0330    6.1100 C.3     1  UNL1        0.0187
      5 C          26.9950   -4.4390    6.6320 C.3     1  UNL1        0.0722
      6 N          28.4550   -4.7070    6.6330 N.3     1  UNL1       -0.2696
      7 C          28.8860   -5.4990    7.6870 C.3     1  UNL1        0.1200
      8 C          28.6390   -6.9740    7.4650 C.3     1  UNL1        0.2226
      9 O          27.2760   -7.1930    7.7390 O.3     1  UNL1       -0.4740
     10 C          26.7860   -8.4590    7.4130 C.ar    1  UNL1        0.1386
     11 C          27.7400   -9.5930    7.1000 C.ar    1  UNL1        0.0367
     12 C          27.2570  -10.8150    6.7850 C.ar    1  UNL1        0.0026
     13 C          25.4240   -8.6650    7.3920 C.ar    1  UNL1        0.0367
     14 C          24.8710  -10.0410    7.0460 C.ar    1  UNL1        0.0026
     15 C          25.7290  -11.0690    6.7500 C.ar    1  UNL1        0.0217
     16 C          25.2820  -12.3730    6.4220 C.3     1  UNL1        0.2102
     17 O          24.9240  -12.4360    5.1230 O.3     1  UNL1       -0.4702
     18 C          23.8530  -12.0050    4.5270 C.ar    1  UNL1        0.1421
     19 C          23.9410  -11.5460    3.2140 C.ar    1  UNL1        0.0789
     20 C          22.7210  -11.0530    2.5680 C.ar    1  UNL1        0.1988
     21 O          22.7830  -10.5860    1.2250 O.3     1  UNL1       -0.2865
     22 C          21.5770  -11.0130    3.2040 C.ar    1  UNL1        0.0422
     23 C          21.5140  -11.5080    4.6250 C.ar    1  UNL1        0.0060
     24 C          22.6640  -11.9590    5.2260 C.ar    1  UNL1        0.0301
     25 C          22.6300  -12.3980    6.5400 C.2     1  UNL1       -0.0192
     26 C          21.2860  -12.6430    7.2770 C.3     1  UNL1        0.0309
     27 C          23.8780  -12.6110    7.2050 C.2     1  UNL1        0.0176
     28 C          24.0740  -12.7550    8.7050 C.ar    1  UNL1       -0.0004
     29 C          23.4980  -11.8920    9.5810 C.ar    1  UNL1        0.0031
     30 C          23.7540  -12.0480   11.0680 C.ar    1  UNL1        0.0420
     31 C          24.5680  -13.0220   11.4830 C.ar    1  UNL1        0.1957
     32 O          24.8350  -13.1930   12.8370 O.3     1  UNL1       -0.2866
     33 C          25.2310  -13.9630   10.5060 C.ar    1  UNL1        0.0420
     34 C          25.0100  -13.8290    9.1890 C.ar    1  UNL1        0.0031
@<TRIPOS>BOND
     1     2     1    1
     2     2     3    1
     3     4     2    1
     4     5     4    1
     5     6     5    1
     6     6     1    1
     7     7     6    1
     8     8     7    1
     9     9     8    1
    10    10     9    1
    11    11    10   ar
    12    12    11   ar
    13    13    10   ar
    14    14    13   ar
    15    15    14   ar
    16    15    12   ar
    17    16    15    1
    18    17    16    1
    19    18    17    1
    20    19    18   ar
    21    20    19   ar
    22    21    20    1
    23    22    20   ar
    24    23    22   ar
    25    24    23   ar
    26    24    18   ar
    27    25    24    1
    28    26    25    1
    29    27    25    2
    30    27    16    1
    31    28    27    1
    32    29    28   ar
    33    30    29   ar
    34    31    30   ar
    35    32    31    1
    36    33    31   ar
    37    34    33   ar
    38    34    28   ar
