@<TRIPOS>MOLECULE
6OWC_ND1_B601
 41 44 0 0 0
SMALL
GASTEIGER

@<TRIPOS>ATOM
      1 C          26.2530   -8.5340    7.0730 C.ar    1  UNL1        0.0577
      2 C          25.3800   -9.5410    6.9990 C.ar    1  UNL1        0.0063
      3 C          36.3080   -9.5300   10.5750 C.3     1  UNL1        0.1152
      4 N          35.8030   -8.1530   10.3210 N.am    1  UNL1       -0.2726
      5 C          36.6290   -6.9540   10.6380 C.3     1  UNL1        0.1152
      6 C          34.5450   -8.0400    9.7730 C.2     1  UNL1        0.2490
      7 O          33.8790   -9.0450    9.4990 O.2     1  UNL1       -0.2699
      8 C          33.9550   -6.6040    9.4740 C.2     1  UNL1        0.0548
      9 C          32.3730   -6.5180    9.5040 C.2     1  UNL1       -0.0027
     10 C          31.3770   -6.4550    8.2980 C.3     1  UNL1        0.1150
     11 N          30.3090   -5.4560    8.4060 N.3     1  UNL1       -0.2094
     12 C          29.4390   -5.4320    7.2120 C.3     1  UNL1        0.1363
     13 C          28.1880   -6.3270    7.3180 C.3     1  UNL1        0.2258
     14 O          28.4810   -7.7270    7.1550 O.3     1  UNL1       -0.4586
     15 C          27.6220   -8.7650    7.1130 C.ar    1  UNL1        0.2249
     16 N          28.0880  -10.0540    7.1290 N.ar    1  UNL1       -0.2101
     17 C          27.1480  -11.1150    7.0780 C.ar    1  UNL1        0.1020
     18 C          25.7620  -10.8610    7.0680 C.ar    1  UNL1        0.0191
     19 C          24.8260  -11.8780    6.9120 C.2     1  UNL1       -0.0022
     20 C          24.8820  -13.0280    7.8750 C.2     1  UNL1       -0.0137
     21 C          24.0690  -14.2270    7.5920 C.3     1  UNL1        0.1297
     22 C          22.9920  -14.5900    8.6520 C.3     1  UNL1        0.4017
     23 F          22.1870  -13.5750    8.7320 F       1  UNL1       -0.1697
     24 F          22.4230  -15.5810    8.1990 F       1  UNL1       -0.1697
     25 F          23.5010  -14.7710    9.7210 F       1  UNL1       -0.1697
     26 C          25.5970  -12.8930    9.0790 C.ar    1  UNL1       -0.0037
     27 C          25.1730  -11.9070    9.9760 C.ar    1  UNL1       -0.0003
     28 C          25.7870  -11.7400   11.2040 C.ar    1  UNL1       -0.0000
     29 C          26.8330  -12.5890   11.5690 C.ar    1  UNL1       -0.0000
     30 C          27.2490  -13.5980   10.7040 C.ar    1  UNL1       -0.0000
     31 C          26.6300  -13.7510    9.4670 C.ar    1  UNL1       -0.0003
     32 C          24.0350  -11.8520    5.7490 C.ar    1  UNL1       -0.0000
     33 C          22.6480  -11.9850    5.7480 C.ar    1  UNL1        0.0054
     34 C          21.9040  -11.9100    4.6130 C.ar    1  UNL1        0.0669
     35 C          20.6110  -11.9590    4.2760 C.ar    1  UNL1        0.2430
     36 F          19.4740  -12.2580    5.0590 F       1  UNL1       -0.1815
     37 N          20.4040  -11.8020    2.9610 N.ar    1  UNL1       -0.1178
     38 N          21.5870  -11.5600    2.4940 N.ar    1  UNL1       -0.1457
     39 C          22.5140  -11.6390    3.4280 C.ar    1  UNL1        0.1067
     40 C          23.8350  -11.4600    3.3560 C.ar    1  UNL1        0.0210
     41 C          24.6310  -11.5480    4.4950 C.ar    1  UNL1        0.0016
@<TRIPOS>BOND
     1     2     1   ar
     2     4     3    1
     3     5     4    1
     4     6     4   am
     5     7     6    2
     6     8     6    1
     7     9     8    2
     8    10     9    1
     9    11    10    1
    10    12    11    1
    11    13    12    1
    12    14    13    1
    13    15     1   ar
    14    15    14    1
    15    16    15   ar
    16    17    16   ar
    17    18    17   ar
    18    18     2   ar
    19    19    18    1
    20    20    19    2
    21    21    20    1
    22    22    21    1
    23    22    23    1
    24    24    22    1
    25    25    22    1
    26    26    20    1
    27    27    26   ar
    28    28    27   ar
    29    29    28   ar
    30    30    29   ar
    31    31    30   ar
    32    31    26   ar
    33    32    19    1
    34    33    32   ar
    35    34    33   ar
    36    35    34   ar
    37    36    35    1
    38    37    35   ar
    39    38    37   ar
    40    39    38   ar
    41    39    34   ar
    42    40    39   ar
    43    41    40   ar
    44    41    32   ar
