@<TRIPOS>MOLECULE
6SQ0_LRQ_A601
 30 34 0 0 0
SMALL
GASTEIGER

@<TRIPOS>ATOM
      1  C1        25.7700  -11.6850   11.9270 C.3   601  LRQ601      0.0368
      2  C2        24.8190  -11.4390   10.7750 C.3   601  LRQ601      0.1486
      3  C3        24.7760   -9.9570   10.4500 C.3   601  LRQ601      0.0368
      4  C8        23.7260  -14.3870    8.1010 C.3   601  LRQ601      0.0164
      5  C9        24.6730  -14.5200    6.9080 C.3   601  LRQ601      0.0035
      6  C10       25.8410  -13.5460    6.9970 C.3   601  LRQ601      0.0248
      7  C11       25.2760  -12.1130    7.1120 C.3   601  LRQ601      0.1035
      8  C12       24.3780  -11.9770    5.9170 C.2   601  LRQ601      0.0671
      9  C13       23.0230  -12.1360    5.9670 C.2   601  LRQ601     -0.0079
     10  C14       22.5270  -11.9210    4.6360 C.2   601  LRQ601      0.0012
     11  C15       21.2660  -11.9380    4.0490 C.2   601  LRQ601     -0.0024
     12  C16       21.1350  -11.6780    2.6930 C.2   601  LRQ601     -0.0005
     13  C19       23.6420  -11.6410    3.8280 C.3   601  LRQ601      0.1468
     14  C21       22.2970  -12.4690    7.2330 C.3   601  LRQ601      0.0433
     15  C22       26.2130  -10.8980    7.1380 C.ar  601  LRQ601      0.0508
     16  C24       28.3830   -9.8120    7.3200 C.ar  601  LRQ601      0.0253
     17  C27       25.6650   -9.6040    7.0170 C.ar  601  LRQ601      0.1395
     18  F35       23.5670  -11.8530   11.1930 F     601  LRQ601     -0.2386
     19  C4        25.3030  -12.2750    9.5340 C.3   601  LRQ601      0.1054
     20  N5        24.4750  -12.0630    8.3380 N.3   601  LRQ601     -0.2658
     21  N20       24.7680  -11.6860    4.6310 N.2   601  LRQ601     -0.2665
     22  C18       23.5150  -11.3820    2.4720 C.2   601  LRQ601      0.0021
     23  C17       22.2470  -11.4040    1.9120 C.2   601  LRQ601     -0.0023
     24  C6        23.2870  -12.9440    8.3020 C.3   601  LRQ601      0.0625
     25  F28       24.3290   -9.4940    6.8720 F     601  LRQ601     -0.2044
     26  C26       26.4110   -8.4540    7.0370 C.ar  601  LRQ601      0.0253
     27  C25       27.7960   -8.5510    7.1910 C.ar  601  LRQ601     -0.0174
     28  C23       27.5900  -10.9310    7.2930 C.ar  601  LRQ601      0.1395
     29  F34       28.1750  -12.1430    7.4170 F     601  LRQ601     -0.2044
     30  C29       28.6170   -7.3390    7.2160 C.3   601  LRQ601      0.0312
@<TRIPOS>BOND
     1    23    22    2
     2    23    12    1
     3    22    13    1
     4    12    11    2
     5    13    21    1
     6    13    10    1
     7    11    10    1
     8    21     8    2
     9    10     9    2
    10     8     9    1
    11     8     7    1
    12     9    14    1
    13    25    17    1
    14     5     6    1
    15     5     4    1
    16     6     7    1
    17    17    26   ar
    18    17    15   ar
    19    26    27   ar
    20     7    15    1
    21     7    20    1
    22    15    28   ar
    23    27    30    1
    24    27    16   ar
    25    14    24    1
    26    28    16   ar
    27    28    29    1
    28     4    24    1
    29    24    20    1
    30    20    19    1
    31    19     2    1
    32     3     2    1
    33     2    18    1
    34     2     1    1
