@<TRIPOS>MOLECULE
6SUO_LVH_B601
 33 36 0 0 0
SMALL
GASTEIGER

@<TRIPOS>ATOM
      1 C          22.8870  -12.7550    8.1670 C.3     1  UNL1        0.0625
      2 C          22.0120  -12.1660    7.0610 C.3     1  UNL1        0.0436
      3 C          22.7960  -11.9690    5.7970 C.ar    1  UNL1       -0.0043
      4 C          22.1460  -11.2930    1.7030 C.ar    1  UNL1        0.0015
      5 C          20.9960  -11.4570    2.4720 C.ar    1  UNL1        0.0001
      6 C          21.0850  -11.6800    3.8430 C.ar    1  UNL1        0.0012
      7 C          22.3390  -11.7420    4.4530 C.ar    1  UNL1        0.0149
      8 C          25.0890  -12.0150    6.9670 C.3     1  UNL1        0.1040
      9 C          25.8630  -13.3100    6.6960 C.3     1  UNL1        0.0268
     10 C          24.9770  -12.3490    9.4670 C.3     1  UNL1        0.1054
     11 C          24.6350  -11.5570   10.7200 C.3     1  UNL1        0.1486
     12 C          24.8360  -10.0730   10.5270 C.3     1  UNL1        0.0368
     13 C          23.2330  -11.8410   11.1960 C.3     1  UNL1        0.0368
     14 C          28.0160   -9.4910    7.6010 C.ar    1  UNL1        0.0295
     15 C          27.3690   -8.2630    7.4190 C.ar    1  UNL1        0.0047
     16 C          28.1070   -7.0010    7.5720 C.2     1  UNL1        0.0069
     17 C          29.4030   -6.8420    7.8440 C.2     1  UNL1        0.0861
     18 C          25.9990   -8.2360    7.1390 C.ar    1  UNL1        0.0295
     19 F          23.9910   -9.3380    6.7430 F       1  UNL1       -0.2044
     20 C          25.3130   -9.4160    6.9920 C.ar    1  UNL1        0.1399
     21 C          30.0450   -5.5140    7.9990 C.2     1  UNL1        0.3880
     22 O          31.3230   -5.5460    8.2660 O.co2   1  UNL1       -0.2405
     23 O          29.4150   -4.4610    7.8830 O.co2   1  UNL1       -0.2405
     24 C          27.3240  -10.6610    7.4060 C.ar    1  UNL1        0.1399
     25 F          28.0030  -11.8220    7.5320 F       1  UNL1       -0.2044
     26 C          25.9280  -10.7400    7.0890 C.ar    1  UNL1        0.0508
     27 N          24.2400  -12.1290    8.2120 N.3     1  UNL1       -0.2658
     28 F          25.4840  -11.9440   11.7320 F       1  UNL1       -0.2386
     29 C          22.8830  -14.2790    8.1360 C.3     1  UNL1        0.0177
     30 C          24.1630  -11.8930    5.7730 C.ar    1  UNL1        0.0719
     31 N          24.5940  -11.6370    4.4880 N.ar    1  UNL1       -0.2484
     32 C          23.4870  -11.5660    3.6580 C.ar    1  UNL1        0.0807
     33 C          23.4040  -11.3630    2.2830 C.ar    1  UNL1        0.0191
@<TRIPOS>BOND
     1     2     1    1
     2     3     2    1
     3     5     4   ar
     4     6     5   ar
     5     7     6   ar
     6     7     3   ar
     7     8     9    1
     8    11    10    1
     9    11    12    1
    10    13    11    1
    11    15    14   ar
    12    16    15    1
    13    17    16    2
    14    18    15   ar
    15    20    19    1
    16    20    18   ar
    17    21    17    1
    18    22    21   ar
    19    23    21   ar
    20    24    14   ar
    21    25    24    1
    22    26     8    1
    23    26    20   ar
    24    26    24   ar
    25    27    10    1
    26    27     8    1
    27    27     1    1
    28    28    11    1
    29     1    29    1
    30    30     8    1
    31    30     3   ar
    32    31    30   ar
    33    32    31   ar
    34    32     7   ar
    35    33    32   ar
    36    33     4   ar
