@<TRIPOS>MOLECULE
7RRY_L84_C601
 46 51 0 0 0
SMALL
GASTEIGER

@<TRIPOS>ATOM
      1 C          21.5630  -11.2260    2.7970 C.ar    1  UNL1        0.1957
      2 C          21.6990  -11.9860    5.0270 C.ar    1  UNL1        0.0030
      3 C          27.6230   -0.5580    8.4870 C.3     1  UNL1        0.0174
      4 C          27.3290   -2.8740    6.7370 C.3     1  UNL1        0.0721
      5 C          27.0830  -13.6700   12.6440 C.3     1  UNL1        0.4174
      6 C          26.0370  -10.6040   10.8900 C.ar    1  UNL1        0.0690
      7 C          26.9900  -10.2610    9.9690 C.ar    1  UNL1        0.0192
      8 C          26.7300   -7.9100   10.2300 C.ar    1  UNL1        0.1386
      9 C          25.4400   -9.5100   11.4260 C.ar    1  UNL1        0.0192
     10 C          25.7450  -10.6820    6.5930 C.ar    1  UNL1       -0.0017
     11 C          23.0440  -11.8400    5.0960 C.ar    1  UNL1       -0.0017
     12 C          28.7060   -1.6530    8.3530 C.3     1  UNL1        0.0721
     13 C          26.6950   -0.4930    7.2640 C.3     1  UNL1        0.0029
     14 C          23.2970  -13.2630    7.2110 C.3     1  UNL1        0.1394
     15 C          27.7600   -3.8460    8.9770 C.3     1  UNL1        0.0759
     16 C          25.0100  -12.5050    8.1080 C.3     1  UNL1        0.1612
     17 C          22.6180  -12.5360    8.3760 C.3     1  UNL1        0.0625
     18 C          23.8950  -11.9480    9.0180 C.3     1  UNL1        0.1829
     19 C          22.8930  -11.0760    2.8270 C.ar    1  UNL1        0.0420
     20 C          20.9820  -11.6840    3.9290 C.ar    1  UNL1        0.0420
     21 C          23.6100  -11.3790    3.9440 C.ar    1  UNL1        0.0030
     22 C          28.2880   -6.3900    9.3410 C.3     1  UNL1        0.2068
     23 C          24.9430  -11.7590    6.7730 C.2     1  UNL1        0.0046
     24 C          26.1590   -1.8980    6.9700 C.3     1  UNL1        0.0174
     25 C          26.9220  -12.8530   11.3880 C.3     1  UNL1        0.2182
     26 C          27.3290   -8.9880    9.6590 C.ar    1  UNL1        0.0382
     27 C          25.7760   -8.2370   11.1190 C.ar    1  UNL1        0.0382
     28 C          23.7630  -12.1670    6.2250 C.2     1  UNL1        0.0030
     29 C          27.0930  -10.8180    6.5280 C.ar    1  UNL1        0.0030
     30 C          27.9220   -9.7830    6.3430 C.ar    1  UNL1        0.0420
     31 C          27.4420   -8.5360    6.2310 C.ar    1  UNL1        0.1957
     32 C          26.1000   -8.3630    6.3060 C.ar    1  UNL1        0.0420
     33 C          25.2900   -9.4220    6.4780 C.ar    1  UNL1        0.0030
     34 C          28.7700   -4.9220    9.4480 C.3     1  UNL1        0.0646
     35 F          27.6320  -12.9390   13.5760 F       1  UNL1       -0.1681
     36 F          27.8710  -14.6990   12.4330 F       1  UNL1       -0.1681
     37 F          26.0170  -14.2460   13.1290 F       1  UNL1       -0.1681
     38 N          25.7670  -11.8810   11.0870 N.pl3   1  UNL1       -0.1856
     39 N          28.2050   -2.9540    7.9030 N.3     1  UNL1       -0.2726
     40 O          24.4600  -13.7660    7.8560 O.3     1  UNL1       -0.3481
     41 O          27.0020   -6.5630    9.9580 O.3     1  UNL1       -0.4754
     42 O          20.8060  -10.9370    1.7040 O.3     1  UNL1       -0.2866
     43 O          24.2250  -13.8840   10.8840 O.2     1  UNL1       -0.1542
     44 O          23.4230  -11.5610   11.6160 O.2     1  UNL1       -0.1542
     45 O          28.2710   -7.4950    6.0520 O.3     1  UNL1       -0.2866
     46 S          24.1640  -12.4180   10.6950 S.O2    1  UNL1        0.0582
@<TRIPOS>BOND
     1     7     6   ar
     2     9     6   ar
     3    11     2   ar
     4    12     3    1
     5    13     3    1
     6    14    17    1
     7    18    17    1
     8    18    16    1
     9    19     1   ar
    10    20     2   ar
    11    20     1   ar
    12    21    19   ar
    13    21    11   ar
    14    16    23    1
    15    23    10    1
    16    24    13    1
    17    24     4    1
    18    25     5    1
    19    26     8   ar
    20    26     7   ar
    21    27     8   ar
    22    27     9   ar
    23    28    11    1
    24    28    23    2
    25    28    14    1
    26    29    10   ar
    27    30    29   ar
    28    31    30   ar
    29    32    31   ar
    30    33    32   ar
    31    33    10   ar
    32    34    22    1
    33    34    15    1
    34     5    35    1
    35    36     5    1
    36    37     5    1
    37    38    25    1
    38    38     6    1
    39    39    15    1
    40    39    12    1
    41    39     4    1
    42    40    16    1
    43    40    14    1
    44    41     8    1
    45    41    22    1
    46    42     1    1
    47    45    31    1
    48    46    43    2
    49    46    18    1
    50    46    44    2
    51    46    38    1
