@<TRIPOS>MOLECULE
7RS4_7I0_C601
 32 35 0 0 0
SMALL
GASTEIGER

@<TRIPOS>ATOM
      1 C          26.7620  -13.0960   11.4030 C.ar    1  UNL1        0.1410
      2 C          27.2160  -13.8650   10.3260 C.ar    1  UNL1        0.0297
      3 C          26.5670  -13.8400    9.1110 C.ar    1  UNL1        0.0028
      4 C          24.7550  -13.0370    7.7260 C.2     1  UNL1       -0.0214
      5 C          23.9090  -14.3190    7.4030 C.3     1  UNL1        0.0264
      6 C          24.7440  -11.8330    6.8350 C.2     1  UNL1       -0.0039
      7 C          25.1330   -9.4410    7.0630 C.ar    1  UNL1       -0.0000
      8 C          27.3420   -8.4760    7.3590 C.ar    1  UNL1        0.0002
      9 C          28.0880   -7.2940    7.4890 C.2     1  UNL1        0.0068
     10 C          29.5670   -7.3200    7.8560 C.2     1  UNL1        0.0861
     11 C          30.3630   -6.0160    7.9570 C.2     1  UNL1        0.3880
     12 C          23.9800  -11.7720    5.6630 C.ar    1  UNL1       -0.0002
     13 C          23.8950  -11.4070    3.2770 C.ar    1  UNL1        0.0210
     14 C          21.9340  -11.6380    4.4960 C.ar    1  UNL1        0.0403
     15 O          31.5590   -6.0510    8.2670 O.co2   1  UNL1       -0.2405
     16 O          29.8450   -4.9110    7.7380 O.co2   1  UNL1       -0.2405
     17 C          27.8760   -9.7670    7.2950 C.ar    1  UNL1        0.0000
     18 C          27.0060  -10.8550    7.1180 C.ar    1  UNL1       -0.0000
     19 C          25.9660   -8.3490    7.2240 C.ar    1  UNL1        0.0000
     20 C          25.6130  -10.7230    7.0530 C.ar    1  UNL1       -0.0003
     21 C          22.8340  -14.6160    8.4230 C.3     1  UNL1        0.0050
     22 C          25.4530  -13.0170    8.9330 C.ar    1  UNL1        0.0068
     23 C          25.0000  -12.2450   10.0210 C.ar    1  UNL1        0.0596
     24 CL         23.6580  -11.1830    9.9810 Cl      1  UNL1       -0.0822
     25 C          25.6530  -12.2840   11.2480 C.ar    1  UNL1        0.0410
     26 F          27.3650  -13.0820   12.5190 F       1  UNL1       -0.2041
     27 C          22.6020  -11.7840    5.6610 C.ar    1  UNL1        0.0032
     28 C          20.6290  -11.6590    4.2350 C.ar    1  UNL1        0.1237
     29 N          20.4750  -11.4570    2.9160 N.ar    1  UNL1       -0.1464
     30 N          21.7090  -11.3100    2.3400 N.ar    1  UNL1       -0.1479
     31 C          22.5820  -11.4400    3.3230 C.ar    1  UNL1        0.1044
     32 C          24.6100  -11.5440    4.4400 C.ar    1  UNL1        0.0016
@<TRIPOS>BOND
     1     2     1   ar
     2     3     2   ar
     3     5     4    1
     4     6     4    2
     5     9     8    1
     6    10     9    2
     7    11    10    1
     8    12     6    1
     9    15    11   ar
    10    16    11   ar
    11    17     8   ar
    12    18    17   ar
    13    19     7   ar
    14    19     8   ar
    15    20     6    1
    16    20    18   ar
    17    20     7   ar
    18    21     5    1
    19    22     4    1
    20    22     3   ar
    21    23    22   ar
    22    24    23    1
    23    25    23   ar
    24    25     1   ar
    25    26     1    1
    26    27    14   ar
    27    27    12   ar
    28    28    14   ar
    29    29    28   ar
    30    30    29   ar
    31    31    30   ar
    32    31    14   ar
    33    31    13   ar
    34    32    13   ar
    35    32    12   ar
