@<TRIPOS>MOLECULE
7UJY_RL4_C601
 32 36 0 0 0
SMALL
GASTEIGER

@<TRIPOS>ATOM
      1 C          25.8560   -4.5340    5.2970 C.3     1  UNL1        0.0173
      2 C          26.6630   -4.2570    6.5500 C.3     1  UNL1        0.0577
      3 C          26.4170   -2.8330    6.8570 C.3     1  UNL1        0.0174
      4 C          27.6510   -2.1340    6.6290 C.3     1  UNL1        0.0187
      5 C          28.6910   -3.2190    6.7180 C.3     1  UNL1        0.0722
      6 N          28.0380   -4.4280    6.3120 N.3     1  UNL1       -0.2709
      7 C          28.5860   -5.4610    7.0840 C.3     1  UNL1        0.1200
      8 C          28.1110   -6.8880    6.7160 C.3     1  UNL1        0.2226
      9 O          26.8370   -7.1310    7.2000 O.3     1  UNL1       -0.4740
     10 C          26.3050   -8.4460    6.9450 C.ar    1  UNL1        0.1386
     11 C          24.8140   -8.5920    6.8610 C.ar    1  UNL1        0.0366
     12 C          24.1770   -9.7500    6.6000 C.ar    1  UNL1       -0.0008
     13 C          27.0190   -9.5500    6.7860 C.ar    1  UNL1        0.0366
     14 C          26.3020  -10.8920    6.5510 C.ar    1  UNL1       -0.0008
     15 C          24.9720  -10.9970    6.4540 C.ar    1  UNL1       -0.0179
     16 C          24.2370  -12.2490    6.1570 C.3     1  UNL1        0.0483
     17 C          23.2810  -11.9410    5.0620 C.ar    1  UNL1       -0.0219
     18 C          23.8620  -11.7320    3.7060 C.ar    1  UNL1       -0.0010
     19 C          23.0340  -11.2500    2.7490 C.ar    1  UNL1        0.0417
     20 C          21.6510  -11.1870    2.8370 C.ar    1  UNL1        0.1954
     21 O          20.8590  -10.9770    1.7700 O.3     1  UNL1       -0.2866
     22 C          21.1040  -11.7480    3.9960 C.ar    1  UNL1        0.0375
     23 C          21.9750  -11.9290    5.1770 C.ar    1  UNL1       -0.0226
     24 C          21.2690  -12.3650    6.4600 C.3     1  UNL1        0.0265
     25 C          22.1650  -12.2830    7.6570 C.3     1  UNL1        0.0097
     26 C          23.5520  -12.8120    7.3630 C.3     1  UNL1        0.0307
     27 C          24.4100  -12.7400    8.6000 C.ar    1  UNL1       -0.0219
     28 C          24.2800  -11.7370    9.4920 C.ar    1  UNL1       -0.0043
     29 C          25.0940  -11.7370   10.6080 C.ar    1  UNL1       -0.0003
     30 C          25.9840  -12.7340   10.8520 C.ar    1  UNL1       -0.0000
     31 C          26.1020  -13.7300    9.9390 C.ar    1  UNL1       -0.0003
     32 C          25.3020  -13.7370    8.8450 C.ar    1  UNL1       -0.0043
@<TRIPOS>BOND
     1     2     1    1
     2     3     2    1
     3     4     3    1
     4     5     4    1
     5     6     2    1
     6     6     5    1
     7     7     6    1
     8     8     7    1
     9     9     8    1
    10    10     9    1
    11    11    10   ar
    12    12    11   ar
    13    13    10   ar
    14    14    13   ar
    15    15    14   ar
    16    15    12   ar
    17    16    15    1
    18    17    16    1
    19    18    17   ar
    20    19    18   ar
    21    20    19   ar
    22    21    20    1
    23    22    20   ar
    24    23    22   ar
    25    23    17   ar
    26    24    23    1
    27    25    24    1
    28    26    25    1
    29    26    16    1
    30    26    27    1
    31    28    27   ar
    32    29    28   ar
    33    30    29   ar
    34    31    30   ar
    35    32    31   ar
    36    32    27   ar
