@<TRIPOS>MOLECULE
8EV1_WVR_A602
 24 27 0 0 0
SMALL
GASTEIGER

@<TRIPOS>ATOM
      1 C          27.4220  -10.1360    6.8210 C.ar    1  UNL1        0.0171
      2 C          23.1400  -11.7110    8.4540 C.3     1  UNL1        0.0024
      3 C          23.9500  -11.8190    9.7200 C.3     1  UNL1        0.0004
      4 C          24.8400  -12.7910    9.6220 C.3     1  UNL1        0.0045
      5 C          23.9840  -12.4980    7.4420 C.3     1  UNL1        0.0282
      6 C          25.2780  -12.8470    8.2020 C.3     1  UNL1        0.0256
      7 C          22.9910  -11.2760    2.7470 C.ar    1  UNL1        0.0418
      8 C          21.6710  -11.2040    2.9360 C.ar    1  UNL1        0.1957
      9 C          21.2520  -11.2930    4.2100 C.ar    1  UNL1        0.0418
     10 C          22.0990  -11.4380    5.2370 C.ar    1  UNL1        0.0007
     11 C          23.4270  -11.4970    5.0390 C.ar    1  UNL1       -0.0025
     12 C          23.8470  -11.4270    3.7660 C.ar    1  UNL1        0.0007
     13 C          24.4050  -11.6930    6.1960 C.3     1  UNL1        0.1148
     14 N          25.1930  -10.5360    6.6500 N.pl3   1  UNL1       -0.2352
     15 C          26.3270  -10.8570    7.1130 C.ar    1  UNL1        0.0617
     16 C          26.4560  -11.9720    7.8480 C.ar    1  UNL1       -0.0063
     17 C          28.6410  -10.5030    7.2770 C.ar    1  UNL1        0.0213
     18 C          28.7780  -11.6110    8.0290 C.ar    1  UNL1        0.1248
     19 C          27.6690  -12.3140    8.2970 C.ar    1  UNL1        0.0170
     20 O          20.7860  -11.0550    1.9140 O.3     1  UNL1       -0.2866
     21 S          30.3550  -12.1900    8.6830 S.O2    1  UNL1        0.0935
     22 O          31.1770  -11.2260    9.3820 O.2     1  UNL1       -0.1503
     23 O          30.7800  -13.5200    8.3160 O.2     1  UNL1       -0.1503
     24 N          30.1710  -12.9370   10.1910 N.3     1  UNL1        0.0392
@<TRIPOS>BOND
     1     3     2    1
     2     4     3    1
     3     5     2    1
     4     6     5    1
     5     6     4    1
     6     8     7   ar
     7     9     8   ar
     8    10     9   ar
     9    11    10   ar
    10    12    11   ar
    11    12     7   ar
    12    13    11    1
    13    13     5    1
    14    14    13    1
    15    15    14    1
    16    15     1   ar
    17    16     6    1
    18    16    15   ar
    19    17     1   ar
    20    18    17   ar
    21    19    16   ar
    22    19    18   ar
    23    20     8    1
    24    21    18    1
    25    22    21    2
    26    23    21    2
    27    21    24    1
