@<TRIPOS>MOLECULE
8VZ0_A1AHO_A600
 40 43 0 0 0
SMALL
GASTEIGER

@<TRIPOS>ATOM
      1  N1        25.5760  -13.8810   10.4790 N.3   600  A1A600      0.0342
      2  C4        23.6830  -12.3710    6.2060 C.3   600  A1A600      0.0478
      3  C5        22.9400  -11.9530    5.0070 C.ar  600  A1A600     -0.0366
      4  C6        23.5720  -11.4550    3.8660 C.ar  600  A1A600     -0.0545
      5  C7        22.8110  -11.0930    2.7620 C.ar  600  A1A600     -0.0199
      6  C8        21.4290  -11.2370    2.7870 C.ar  600  A1A600      0.1169
      7  C10       21.5460  -12.1000    5.0270 C.ar  600  A1A600     -0.0545
      8  C13       25.3430   -9.5510    6.5620 C.ar  600  A1A600     -0.0544
      9  C15       27.6000   -8.7590    6.3060 C.ar  600  A1A600      0.1169
     10  C17       27.1890  -11.1140    6.4610 C.ar  600  A1A600     -0.0544
     11  C1        24.2090  -12.0720    9.0690 C.3   600  A1A600      0.1251
     12  C11       24.8990  -12.0290    6.7300 C.3   600  A1A600      0.0496
     13  C12       25.8100  -10.8690    6.5660 C.ar  600  A1A600     -0.0365
     14  C14       26.2360   -8.4940    6.4280 C.ar  600  A1A600     -0.0199
     15  C16       28.0860  -10.0620    6.3220 C.ar  600  A1A600     -0.0199
     16  C18       25.0080  -12.8500    8.0050 C.3   600  A1A600      0.0942
     17  C2        22.7990  -12.0950    8.4580 C.3   600  A1A600      0.0007
     18  C3        22.9950  -13.1340    7.3310 C.3   600  A1A600      0.0725
     19  C9        20.7850  -11.7440    3.9170 C.ar  600  A1A600     -0.0199
     20  O1        24.5300  -12.0810   11.8530 O.2   600  A1A600     -0.1552
     21  O2        20.7050  -10.8620    1.6870 O.3   600  A1A600     -0.5068
     22  O3        28.4730   -7.7160    6.1760 O.3   600  A1A600     -0.5068
     23  O4        24.0830  -13.8870    7.8050 O.3   600  A1A600     -0.3695
     24  O6        22.9840  -13.8630   10.7550 O.2   600  A1A600     -0.1552
     25  S1        24.1110  -12.9260   10.7390 S.O2  600  A1A600      0.0686
     26  H6        24.6450  -11.3440    3.8280 H     600  A1A600      0.0622
     27  H7        23.3000  -10.6980    1.8820 H     600  A1A600      0.0654
     28  H10       21.0490  -12.4900    5.9030 H     600  A1A600      0.0622
     29  H11       24.2890   -9.3410    6.6640 H     600  A1A600      0.0622
     30  H15       27.5670  -12.1250    6.4860 H     600  A1A600      0.0622
     31  H1        24.6840  -11.1060    9.2330 H     600  A1A600      0.0580
     32  H12       25.8710   -7.4780    6.4190 H     600  A1A600      0.0654
     33  H14       29.1440  -10.2610    6.2310 H     600  A1A600      0.0654
     34  H3        25.9880  -13.2600    8.2520 H     600  A1A600      0.0625
     35  H5        22.4950  -11.1290    8.0530 H     600  A1A600      0.0310
     36  H4        22.0340  -12.4190    9.1630 H     600  A1A600      0.0310
     37  H2        22.1520  -13.7930    7.1250 H     600  A1A600      0.0606
     38  H9        19.7130  -11.8610    3.9350 H     600  A1A600      0.0654
     39  H8        21.0970  -11.1590    0.8630 H     600  A1A600      0.2921
     40  H13       28.3270   -7.1840    5.3900 H     600  A1A600      0.2921
@<TRIPOS>BOND
     1    39    21    1
     2    21     6    1
     3    27     5    1
     4     5     6   ar
     5     5     4   ar
     6     6    19   ar
     7    26     4    1
     8     4     3   ar
     9    19    38    1
    10    19     7   ar
    11     3     7   ar
    12     3     2    1
    13     7    28    1
    14    40    22    1
    15    22     9    1
    16     2    12    1
    17     2    18    1
    18    33    15    1
    19     9    15   ar
    20     9    14   ar
    21    15    10   ar
    22    32    14    1
    23    14     8   ar
    24    10    30    1
    25    10    13   ar
    26     8    13   ar
    27     8    29    1
    28    13    12    1
    29    12    16    1
    30    37    18    1
    31    18    23    1
    32    18    17    1
    33    23    16    1
    34    16    34    1
    35    16    11    1
    36    35    17    1
    37    17    11    1
    38    17    36    1
    39    11    31    1
    40    11    25    1
    41     1    25    1
    42    25    24    2
    43    25    20    2
