Z1262591397
     RDKit          3D

 28 28  0  0  0  0  0  0  0  0999 V2000
   -4.0210    0.1970    1.2309 C   0  0  0  0  0  0  0  0  0  0  0  0
   -3.2385   -0.5827    0.2765 N   0  0  0  0  0  0  0  0  0  0  0  0
   -1.8596   -0.0558    0.1918 C   0  0  0  0  0  0  0  0  0  0  0  0
   -1.0780   -0.7098   -0.9722 C   0  0  0  0  0  0  0  0  0  0  0  0
   -1.1969   -2.1349   -0.8927 O   0  0  0  0  0  0  0  0  0  0  0  0
    0.3805   -0.3033   -0.9561 C   0  0  0  0  0  0  0  0  0  0  0  0
    0.7985    0.8311   -1.6676 C   0  0  0  0  0  0  0  0  0  0  0  0
    2.1336    1.2384   -1.6375 C   0  0  0  0  0  0  0  0  0  0  0  0
    3.0598    0.5142   -0.8900 C   0  0  0  0  0  0  0  0  0  0  0  0
    4.3692    0.9038   -0.8515 O   0  0  0  0  0  0  0  0  0  0  0  0
    2.6752   -0.6170   -0.1664 C   0  0  0  0  0  0  0  0  0  0  0  0
    3.6751   -1.3965    0.6365 C   0  0  0  0  0  0  0  0  0  0  0  0
    1.3311   -1.0165   -0.2065 C   0  0  0  0  0  0  0  0  0  0  0  0
   -4.1195    1.2372    0.9043 H   0  0  0  0  0  0  0  0  0  0  0  0
   -3.5743    0.1747    2.2303 H   0  0  0  0  0  0  0  0  0  0  0  0
   -5.0292   -0.2226    1.3026 H   0  0  0  0  0  0  0  0  0  0  0  0
   -3.1814   -1.5408    0.6282 H   0  0  0  0  0  0  0  0  0  0  0  0
   -1.8706    1.0315    0.0449 H   0  0  0  0  0  0  0  0  0  0  0  0
   -1.3528   -0.2595    1.1440 H   0  0  0  0  0  0  0  0  0  0  0  0
   -1.5214   -0.4154   -1.9321 H   0  0  0  0  0  0  0  0  0  0  0  0
   -2.1416   -2.3080   -1.0536 H   0  0  0  0  0  0  0  0  0  0  0  0
    0.0837    1.4059   -2.2526 H   0  0  0  0  0  0  0  0  0  0  0  0
    2.4302    2.1184   -2.1994 H   0  0  0  0  0  0  0  0  0  0  0  0
    4.4786    1.6811   -1.4225 H   0  0  0  0  0  0  0  0  0  0  0  0
    3.2071   -2.2445    1.1473 H   0  0  0  0  0  0  0  0  0  0  0  0
    4.4595   -1.7930   -0.0161 H   0  0  0  0  0  0  0  0  0  0  0  0
    4.1278   -0.7576    1.4016 H   0  0  0  0  0  0  0  0  0  0  0  0
    1.0154   -1.8999    0.3472 H   0  0  0  0  0  0  0  0  0  0  0  0
  1  2  1  0
  2  3  1  0
  3  4  1  0
  4  5  1  0
  4  6  1  0
  6  7  2  0
  7  8  1  0
  8  9  2  0
  9 10  1  0
  9 11  1  0
 11 12  1  0
 11 13  2  0
 13  6  1  0
  1 14  1  0
  1 15  1  0
  1 16  1  0
  2 17  1  0
  3 18  1  0
  3 19  1  0
  4 20  1  0
  5 21  1  0
  7 22  1  0
  8 23  1  0
 10 24  1  0
 12 25  1  0
 12 26  1  0
 12 27  1  0
 13 28  1  0
M  END
>  <mol_id>  (1) 
Z1262591397

>  <drugclip_rank>  (1) 
1

>  <conformer>  (1) 
4

>  <align_rmsd>  (1) 
0.634

$$$$
FCG2447674341
     RDKit          3D

 33 34  0  0  0  0  0  0  0  0999 V2000
   -3.8693   -2.1813    2.1515 C   0  0  0  0  0  0  0  0  0  0  0  0
   -2.7647   -1.4762    1.3695 C   0  0  0  0  0  0  0  0  0  0  0  0
   -3.2898   -0.2366    0.7748 N   0  0  0  0  0  0  0  0  0  0  0  0
   -2.1683   -2.4118    0.2810 C   0  0  0  0  0  0  0  0  0  0  0  0
   -1.2539   -1.7198   -0.6560 N   0  0  0  0  0  0  0  0  0  0  0  0
   -0.9197   -2.6035   -1.7861 C   0  0  0  0  0  0  0  0  0  0  0  0
   -0.1403   -1.8373   -2.8628 C   0  0  0  0  0  0  0  0  0  0  0  0
   -0.0075   -1.3033    0.0239 C   0  0  0  0  0  0  0  0  0  0  0  0
    1.0546   -0.7724   -0.9169 C   0  0  0  0  0  0  0  0  0  0  0  0
    1.0186   -1.0624   -2.2920 C   0  0  0  0  0  0  0  0  0  0  0  0
    2.1282   -0.0313   -0.4021 C   0  0  0  0  0  0  0  0  0  0  0  0
    3.1283    0.4313   -1.2501 C   0  0  0  0  0  0  0  0  0  0  0  0
    4.1463    1.1508   -0.6966 O   0  0  0  0  0  0  0  0  0  0  0  0
    3.0875    0.1663   -2.6141 C   0  0  0  0  0  0  0  0  0  0  0  0
    2.0293   -0.5790   -3.1354 C   0  0  0  0  0  0  0  0  0  0  0  0
   -4.7026   -2.4708    1.5015 H   0  0  0  0  0  0  0  0  0  0  0  0
   -3.4840   -3.0886    2.6290 H   0  0  0  0  0  0  0  0  0  0  0  0
   -4.2660   -1.5327    2.9404 H   0  0  0  0  0  0  0  0  0  0  0  0
   -1.9747   -1.1985    2.0765 H   0  0  0  0  0  0  0  0  0  0  0  0
   -4.0684   -0.4707    0.1591 H   0  0  0  0  0  0  0  0  0  0  0  0
   -2.5677    0.0998    0.1276 H   0  0  0  0  0  0  0  0  0  0  0  0
   -3.0087   -2.8200   -0.2972 H   0  0  0  0  0  0  0  0  0  0  0  0
   -1.6697   -3.2657    0.7583 H   0  0  0  0  0  0  0  0  0  0  0  0
   -0.3388   -3.4703   -1.4421 H   0  0  0  0  0  0  0  0  0  0  0  0
   -1.8339   -2.9923   -2.2513 H   0  0  0  0  0  0  0  0  0  0  0  0
   -0.8103   -1.1300   -3.3678 H   0  0  0  0  0  0  0  0  0  0  0  0
    0.2218   -2.5512   -3.6121 H   0  0  0  0  0  0  0  0  0  0  0  0
    0.4301   -2.1450    0.5772 H   0  0  0  0  0  0  0  0  0  0  0  0
   -0.2412   -0.5085    0.7413 H   0  0  0  0  0  0  0  0  0  0  0  0
    2.1872    0.1906    0.6603 H   0  0  0  0  0  0  0  0  0  0  0  0
    4.7497    1.4255   -1.4060 H   0  0  0  0  0  0  0  0  0  0  0  0
    3.8616    0.5286   -3.2824 H   0  0  0  0  0  0  0  0  0  0  0  0
    1.9931   -0.7810   -4.2034 H   0  0  0  0  0  0  0  0  0  0  0  0
  1  2  1  0
  2  3  1  0
  2  4  1  0
  4  5  1  0
  5  6  1  0
  6  7  1  0
  5  8  1  0
  8  9  1  0
  9 10  2  0
  9 11  1  0
 11 12  2  0
 12 13  1  0
 12 14  1  0
 14 15  2  0
 10  7  1  0
 15 10  1  0
  1 16  1  0
  1 17  1  0
  1 18  1  0
  2 19  1  0
  3 20  1  0
  3 21  1  0
  4 22  1  0
  4 23  1  0
  6 24  1  0
  6 25  1  0
  7 26  1  0
  7 27  1  0
  8 28  1  0
  8 29  1  0
 11 30  1  0
 13 31  1  0
 14 32  1  0
 15 33  1  0
M  END
>  <mol_id>  (2) 
FCG2447674341

>  <drugclip_rank>  (2) 
2

>  <conformer>  (2) 
0

>  <align_rmsd>  (2) 
0.381

$$$$
Z3324923673
     RDKit          3D

 33 32  0  0  0  0  0  0  0  0999 V2000
    0.5725    0.2372   -1.6015 Cl  0  0  0  0  0  0  0  0  0  0  0  0
    1.9931    2.6386   -3.9054 C   0  0  0  0  0  0  0  0  0  0  0  0
    2.6953    2.1054   -2.8195 O   0  0  0  0  0  0  0  0  0  0  0  0
    2.2348    0.9791   -2.1552 C   0  0  0  0  0  0  0  0  0  0  0  0
    1.0825    0.3321   -2.5176 C   0  0  0  0  0  0  0  0  0  0  0  0
    0.6174   -0.8031   -1.8487 C   0  0  0  0  0  0  0  0  0  0  0  0
    1.3880   -1.2388   -0.7965 C   0  0  0  0  0  0  0  0  0  0  0  0
    2.5532   -0.6138   -0.4027 C   0  0  0  0  0  0  0  0  0  0  0  0
    2.9882    0.5133   -1.0891 C   0  0  0  0  0  0  0  0  0  0  0  0
    4.1650    1.1646   -0.7102 O   0  0  0  0  0  0  0  0  0  0  0  0
   -0.6394   -1.4736   -2.2770 C   0  0  0  0  0  0  0  0  0  0  0  0
   -1.8455   -0.9171   -1.5703 C   0  0  0  0  0  0  0  0  0  0  0  0
   -1.8107   -1.0513   -0.0949 C   0  0  0  0  0  0  0  0  0  0  0  0
   -1.7219   -2.4445    0.4170 C   0  0  0  0  0  0  0  0  0  0  0  0
   -3.0193   -0.4354    0.4328 N   0  0  0  0  0  0  0  0  0  0  0  0
   -0.1149   -0.8887   -1.2004 H   0  0  0  0  0  0  0  0  0  0  0  0
    1.1064    3.1902   -3.4964 H   0  0  0  0  0  0  0  0  0  0  0  0
    2.6059    3.3626   -4.4766 H   0  0  0  0  0  0  0  0  0  0  0  0
    1.5910    1.8571   -4.5847 H   0  0  0  0  0  0  0  0  0  0  0  0
    0.4798    0.6780   -3.3454 H   0  0  0  0  0  0  0  0  0  0  0  0
    1.0832   -2.1113   -0.2383 H   0  0  0  0  0  0  0  0  0  0  0  0
    3.1640   -0.9515    0.4242 H   0  0  0  0  0  0  0  0  0  0  0  0
    4.8255    1.3831   -1.4572 H   0  0  0  0  0  0  0  0  0  0  0  0
   -0.7224   -1.2589   -3.3628 H   0  0  0  0  0  0  0  0  0  0  0  0
   -0.5688   -2.5804   -2.2115 H   0  0  0  0  0  0  0  0  0  0  0  0
   -1.9039    0.1574   -1.8385 H   0  0  0  0  0  0  0  0  0  0  0  0
   -2.7409   -1.4347   -1.9570 H   0  0  0  0  0  0  0  0  0  0  0  0
   -0.9804   -0.4170    0.3070 H   0  0  0  0  0  0  0  0  0  0  0  0
   -0.8533   -2.5723    1.1072 H   0  0  0  0  0  0  0  0  0  0  0  0
   -1.7290   -3.2211   -0.3661 H   0  0  0  0  0  0  0  0  0  0  0  0
   -2.6067   -2.7018    1.0709 H   0  0  0  0  0  0  0  0  0  0  0  0
   -3.7845   -0.7363   -0.2366 H   0  0  0  0  0  0  0  0  0  0  0  0
   -3.2559   -0.7723    1.3952 H   0  0  0  0  0  0  0  0  0  0  0  0
  2  3  1  0
  3  4  1  0
  4  5  2  0
  5  6  1  0
  6  7  2  0
  7  8  1  0
  8  9  2  0
  9 10  1  0
  6 11  1  0
 11 12  1  0
 12 13  1  0
 13 14  1  0
 13 15  1  0
  9  4  1  0
  1 16  1  0
  2 17  1  0
  2 18  1  0
  2 19  1  0
  5 20  1  0
  7 21  1  0
  8 22  1  0
 10 23  1  0
 11 24  1  0
 11 25  1  0
 12 26  1  0
 12 27  1  0
 13 28  1  0
 14 29  1  0
 14 30  1  0
 14 31  1  0
 15 32  1  0
 15 33  1  0
M  END
>  <mol_id>  (3) 
Z3324923673

>  <drugclip_rank>  (3) 
3

>  <conformer>  (3) 
11

>  <align_rmsd>  (3) 
0.136

$$$$
Z295456854
     RDKit          3D

 27 26  0  0  0  0  0  0  0  0999 V2000
    0.6774    0.2831   -1.1435 Cl  0  0  0  0  0  0  0  0  0  0  0  0
   -1.6624   -2.3986   -0.6054 O   0  0  0  0  0  0  0  0  0  0  0  0
   -1.4831   -1.2982    0.1940 C   0  0  0  0  0  0  0  0  0  0  0  0
   -1.8546   -0.0038   -0.4256 C   0  0  2  0  0  0  0  0  0  0  0  0
   -3.2572   -0.0387   -0.7843 N   0  0  0  0  0  0  0  0  0  0  0  0
   -1.0891    0.3975   -1.6238 C   0  0  0  0  0  0  0  0  0  0  0  0
    0.3670    0.5499   -1.4187 C   0  0  0  0  0  0  0  0  0  0  0  0
    1.2167   -0.5457   -1.6090 C   0  0  0  0  0  0  0  0  0  0  0  0
    2.5724   -0.3805   -1.4120 C   0  0  0  0  0  0  0  0  0  0  0  0
    3.0631    0.8467   -1.0352 C   0  0  0  0  0  0  0  0  0  0  0  0
    4.4492    0.9718   -0.8452 O   0  0  0  0  0  0  0  0  0  0  0  0
    2.2692    1.9442   -0.8380 C   0  0  0  0  0  0  0  0  0  0  0  0
    0.9066    1.7832   -1.0348 C   0  0  0  0  0  0  0  0  0  0  0  0
   -0.5592   -0.0995   -0.6891 H   0  0  0  0  0  0  0  0  0  0  0  0
   -1.8632   -3.1751   -0.0249 H   0  0  0  0  0  0  0  0  0  0  0  0
   -2.1460   -1.4234    1.0941 H   0  0  0  0  0  0  0  0  0  0  0  0
   -0.4580   -1.3309    0.6055 H   0  0  0  0  0  0  0  0  0  0  0  0
   -1.7483    0.7856    0.3415 H   0  0  0  0  0  0  0  0  0  0  0  0
   -3.4553    0.7619   -1.4536 H   0  0  0  0  0  0  0  0  0  0  0  0
   -3.4326   -0.9013   -1.3697 H   0  0  0  0  0  0  0  0  0  0  0  0
   -1.4587    1.4174   -1.9153 H   0  0  0  0  0  0  0  0  0  0  0  0
   -1.2448   -0.2263   -2.5103 H   0  0  0  0  0  0  0  0  0  0  0  0
    0.8177   -1.5203   -1.9093 H   0  0  0  0  0  0  0  0  0  0  0  0
    3.2190   -1.2498   -1.5661 H   0  0  0  0  0  0  0  0  0  0  0  0
    4.8599    1.7710   -1.3358 H   0  0  0  0  0  0  0  0  0  0  0  0
    2.6478    2.9149   -0.5411 H   0  0  0  0  0  0  0  0  0  0  0  0
    0.2431    2.6438   -0.8848 H   0  0  0  0  0  0  0  0  0  0  0  0
  2  3  1  0
  3  4  1  0
  4  5  1  0
  4  6  1  0
  6  7  1  0
  7  8  2  0
  8  9  1  0
  9 10  2  0
 10 11  1  0
 10 12  1  0
 12 13  2  0
 13  7  1  0
  1 14  1  0
  2 15  1  0
  3 16  1  0
  3 17  1  0
  4 18  1  1
  5 19  1  0
  5 20  1  0
  6 21  1  0
  6 22  1  0
  8 23  1  0
  9 24  1  0
 11 25  1  0
 12 26  1  0
 13 27  1  0
M  END
>  <mol_id>  (4) 
Z295456854

>  <drugclip_rank>  (4) 
4

>  <conformer>  (4) 
0

>  <align_rmsd>  (4) 
0.837

$$$$
Z2301287926
     RDKit          3D

 38 38  0  0  0  0  0  0  0  0999 V2000
   -4.3205   -1.1574   -2.0628 C   0  0  0  0  0  0  0  0  0  0  0  0
   -4.2841   -0.1603   -0.8926 C   0  0  0  0  0  0  0  0  0  0  0  0
   -5.6551   -0.2354   -0.1826 C   0  0  0  0  0  0  0  0  0  0  0  0
   -4.1061    1.2696   -1.4283 C   0  0  0  0  0  0  0  0  0  0  0  0
   -3.2722   -0.5750    0.1054 N   0  0  0  0  0  0  0  0  0  0  0  0
   -1.8941   -0.0580   -0.0402 C   0  0  0  0  0  0  0  0  0  0  0  0
   -1.0690   -0.7301   -1.1618 C   0  0  0  0  0  0  0  0  0  0  0  0
   -1.2045   -2.1502   -1.0451 O   0  0  0  0  0  0  0  0  0  0  0  0
    0.3902   -0.3246   -1.0961 C   0  0  0  0  0  0  0  0  0  0  0  0
    0.8134    0.8571   -1.7219 C   0  0  0  0  0  0  0  0  0  0  0  0
    2.1459    1.2647   -1.6460 C   0  0  0  0  0  0  0  0  0  0  0  0
    3.0655    0.4912   -0.9400 C   0  0  0  0  0  0  0  0  0  0  0  0
    4.3751    0.8830   -0.8640 O   0  0  0  0  0  0  0  0  0  0  0  0
    2.6832   -0.6970   -0.3088 C   0  0  0  0  0  0  0  0  0  0  0  0
    1.3351   -1.0866   -0.3881 C   0  0  0  0  0  0  0  0  0  0  0  0
    3.6492   -1.5319    0.4959 C   0  0  0  0  0  0  0  0  0  0  0  0
    4.8824   -1.7447   -0.1810 O   0  0  0  0  0  0  0  0  0  0  0  0
   -3.4247   -1.1057   -2.6856 H   0  0  0  0  0  0  0  0  0  0  0  0
   -4.4227   -2.1888   -1.7055 H   0  0  0  0  0  0  0  0  0  0  0  0
   -5.1745   -0.9563   -2.7208 H   0  0  0  0  0  0  0  0  0  0  0  0
   -6.4722    0.0112   -0.8709 H   0  0  0  0  0  0  0  0  0  0  0  0
   -5.8492   -1.2410    0.2097 H   0  0  0  0  0  0  0  0  0  0  0  0
   -5.7110    0.4683    0.6566 H   0  0  0  0  0  0  0  0  0  0  0  0
   -3.1933    1.3735   -2.0246 H   0  0  0  0  0  0  0  0  0  0  0  0
   -4.9440    1.5514   -2.0771 H   0  0  0  0  0  0  0  0  0  0  0  0
   -4.0673    1.9994   -0.6115 H   0  0  0  0  0  0  0  0  0  0  0  0
   -3.5944   -0.2825    1.0311 H   0  0  0  0  0  0  0  0  0  0  0  0
   -1.8698    1.0344   -0.1177 H   0  0  0  0  0  0  0  0  0  0  0  0
   -1.4001   -0.2906    0.9134 H   0  0  0  0  0  0  0  0  0  0  0  0
   -1.4572   -0.4545   -2.1467 H   0  0  0  0  0  0  0  0  0  0  0  0
   -2.1112   -2.2787   -0.7003 H   0  0  0  0  0  0  0  0  0  0  0  0
    0.1045    1.4677   -2.2772 H   0  0  0  0  0  0  0  0  0  0  0  0
    2.4460    2.1817   -2.1437 H   0  0  0  0  0  0  0  0  0  0  0  0
    4.4697    1.7324   -1.3284 H   0  0  0  0  0  0  0  0  0  0  0  0
    1.0127   -2.0049    0.1026 H   0  0  0  0  0  0  0  0  0  0  0  0
    3.8569   -1.0316    1.4479 H   0  0  0  0  0  0  0  0  0  0  0  0
    3.2290   -2.5177    0.7189 H   0  0  0  0  0  0  0  0  0  0  0  0
    5.0891   -0.8952   -0.6167 H   0  0  0  0  0  0  0  0  0  0  0  0
  1  2  1  0
  2  3  1  0
  2  4  1  0
  2  5  1  0
  5  6  1  0
  6  7  1  0
  7  8  1  0
  7  9  1  0
  9 10  2  0
 10 11  1  0
 11 12  2  0
 12 13  1  0
 12 14  1  0
 14 15  2  0
 14 16  1  0
 16 17  1  0
 15  9  1  0
  1 18  1  0
  1 19  1  0
  1 20  1  0
  3 21  1  0
  3 22  1  0
  3 23  1  0
  4 24  1  0
  4 25  1  0
  4 26  1  0
  5 27  1  0
  6 28  1  0
  6 29  1  0
  7 30  1  0
  8 31  1  0
 10 32  1  0
 11 33  1  0
 13 34  1  0
 15 35  1  0
 16 36  1  0
 16 37  1  0
 17 38  1  0
M  END
>  <mol_id>  (5) 
Z2301287926

>  <drugclip_rank>  (5) 
5

>  <conformer>  (5) 
22

>  <align_rmsd>  (5) 
0.551

$$$$
Z56836691
     RDKit          3D

 28 28  0  0  0  0  0  0  0  0999 V2000
   -2.1952    0.5212    2.8867 C   0  0  0  0  0  0  0  0  0  0  0  0
   -2.4804   -0.6953    2.0170 C   0  0  0  0  0  0  0  0  0  0  0  0
   -2.6277   -0.3824    0.5929 N   0  0  0  0  0  0  0  0  0  0  0  0
   -1.3752    0.0457   -0.0673 C   0  0  0  0  0  0  0  0  0  0  0  0
   -0.3583   -1.1098   -0.2404 C   0  0  0  0  0  0  0  0  0  0  0  0
   -1.0386   -2.2349   -0.8105 O   0  0  0  0  0  0  0  0  0  0  0  0
    0.8158   -0.6940   -1.0999 C   0  0  0  0  0  0  0  0  0  0  0  0
    0.8626   -0.9716   -2.4746 C   0  0  0  0  0  0  0  0  0  0  0  0
    1.9469   -0.5550   -3.2514 C   0  0  0  0  0  0  0  0  0  0  0  0
    2.9981    0.1495   -2.6665 C   0  0  0  0  0  0  0  0  0  0  0  0
    2.9541    0.4306   -1.3056 C   0  0  0  0  0  0  0  0  0  0  0  0
    3.9575    1.1194   -0.6897 O   0  0  0  0  0  0  0  0  0  0  0  0
    1.8791    0.0187   -0.5239 C   0  0  0  0  0  0  0  0  0  0  0  0
   -2.2214    0.2377    3.9441 H   0  0  0  0  0  0  0  0  0  0  0  0
   -1.2066    0.9433    2.6833 H   0  0  0  0  0  0  0  0  0  0  0  0
   -2.9453    1.3039    2.7322 H   0  0  0  0  0  0  0  0  0  0  0  0
   -3.4265   -1.1373    2.3507 H   0  0  0  0  0  0  0  0  0  0  0  0
   -1.7189   -1.4650    2.1789 H   0  0  0  0  0  0  0  0  0  0  0  0
   -3.3125    0.3695    0.4933 H   0  0  0  0  0  0  0  0  0  0  0  0
   -0.9222    0.9053    0.4383 H   0  0  0  0  0  0  0  0  0  0  0  0
   -1.6674    0.3974   -1.0655 H   0  0  0  0  0  0  0  0  0  0  0  0
    0.0206   -1.4390    0.7338 H   0  0  0  0  0  0  0  0  0  0  0  0
   -1.9423   -2.1776   -0.4381 H   0  0  0  0  0  0  0  0  0  0  0  0
    0.0513   -1.5236   -2.9464 H   0  0  0  0  0  0  0  0  0  0  0  0
    1.9682   -0.7847   -4.3136 H   0  0  0  0  0  0  0  0  0  0  0  0
    3.8332    0.4662   -3.2825 H   0  0  0  0  0  0  0  0  0  0  0  0
    4.6460    1.3109   -1.3474 H   0  0  0  0  0  0  0  0  0  0  0  0
    1.8774    0.2541    0.5374 H   0  0  0  0  0  0  0  0  0  0  0  0
  1  2  1  0
  2  3  1  0
  3  4  1  0
  4  5  1  0
  5  6  1  0
  5  7  1  0
  7  8  2  0
  8  9  1  0
  9 10  2  0
 10 11  1  0
 11 12  1  0
 11 13  2  0
 13  7  1  0
  1 14  1  0
  1 15  1  0
  1 16  1  0
  2 17  1  0
  2 18  1  0
  3 19  1  0
  4 20  1  0
  4 21  1  0
  5 22  1  0
  6 23  1  0
  8 24  1  0
  9 25  1  0
 10 26  1  0
 12 27  1  0
 13 28  1  0
M  END
>  <mol_id>  (6) 
Z56836691

>  <drugclip_rank>  (6) 
6

>  <conformer>  (6) 
10

>  <align_rmsd>  (6) 
0.314

$$$$
OSSL_962902
     RDKit          3D

 28 28  0  0  0  0  0  0  0  0999 V2000
   -3.7803   -0.9440    2.6654 C   0  0  0  0  0  0  0  0  0  0  0  0
   -2.4453   -0.5946    2.0244 C   0  0  0  0  0  0  0  0  0  0  0  0
   -2.6294   -0.3874    0.5856 N   0  0  0  0  0  0  0  0  0  0  0  0
   -1.3785    0.0494   -0.0747 C   0  0  0  0  0  0  0  0  0  0  0  0
   -0.3605   -1.1055   -0.2437 C   0  0  0  0  0  0  0  0  0  0  0  0
   -1.0404   -2.2316   -0.8125 O   0  0  0  0  0  0  0  0  0  0  0  0
    0.8147   -0.6911   -1.1018 C   0  0  0  0  0  0  0  0  0  0  0  0
    1.8781    0.0209   -0.5252 C   0  0  0  0  0  0  0  0  0  0  0  0
    2.9542    0.4314   -1.3061 C   0  0  0  0  0  0  0  0  0  0  0  0
    3.9576    1.1196   -0.6897 O   0  0  0  0  0  0  0  0  0  0  0  0
    2.9992    0.1496   -2.6669 C   0  0  0  0  0  0  0  0  0  0  0  0
    1.9480   -0.5543   -3.2524 C   0  0  0  0  0  0  0  0  0  0  0  0
    0.8626   -0.9696   -2.4764 C   0  0  0  0  0  0  0  0  0  0  0  0
   -4.5077   -0.1355    2.5353 H   0  0  0  0  0  0  0  0  0  0  0  0
   -3.6504   -1.1098    3.7397 H   0  0  0  0  0  0  0  0  0  0  0  0
   -4.2006   -1.8577    2.2316 H   0  0  0  0  0  0  0  0  0  0  0  0
   -1.7443   -1.4144    2.2111 H   0  0  0  0  0  0  0  0  0  0  0  0
   -2.0485    0.3112    2.4968 H   0  0  0  0  0  0  0  0  0  0  0  0
   -3.3296    0.3449    0.4503 H   0  0  0  0  0  0  0  0  0  0  0  0
   -0.9327    0.9053    0.4463 H   0  0  0  0  0  0  0  0  0  0  0  0
   -1.6678    0.4050   -1.0722 H   0  0  0  0  0  0  0  0  0  0  0  0
    0.0151   -1.4333    0.7324 H   0  0  0  0  0  0  0  0  0  0  0  0
   -1.9405   -2.1794   -0.4305 H   0  0  0  0  0  0  0  0  0  0  0  0
    1.8759    0.2567    0.5360 H   0  0  0  0  0  0  0  0  0  0  0  0
    4.6472    1.3096   -1.3467 H   0  0  0  0  0  0  0  0  0  0  0  0
    3.8352    0.4652   -3.2823 H   0  0  0  0  0  0  0  0  0  0  0  0
    1.9700   -0.7847   -4.3144 H   0  0  0  0  0  0  0  0  0  0  0  0
    0.0513   -1.5212   -2.9485 H   0  0  0  0  0  0  0  0  0  0  0  0
  1  2  1  0
  2  3  1  0
  3  4  1  0
  4  5  1  0
  5  6  1  0
  5  7  1  0
  7  8  2  0
  8  9  1  0
  9 10  1  0
  9 11  2  0
 11 12  1  0
 12 13  2  0
 13  7  1  0
  1 14  1  0
  1 15  1  0
  1 16  1  0
  2 17  1  0
  2 18  1  0
  3 19  1  0
  4 20  1  0
  4 21  1  0
  5 22  1  0
  6 23  1  0
  8 24  1  0
 10 25  1  0
 11 26  1  0
 12 27  1  0
 13 28  1  0
M  END
>  <mol_id>  (7) 
OSSL_962902

>  <drugclip_rank>  (7) 
7

>  <conformer>  (7) 
3

>  <align_rmsd>  (7) 
0.312

$$$$
STL377784
     RDKit          3D

 28 28  0  0  0  0  0  0  0  0999 V2000
   -3.7803   -0.9440    2.6654 C   0  0  0  0  0  0  0  0  0  0  0  0
   -2.4453   -0.5946    2.0244 C   0  0  0  0  0  0  0  0  0  0  0  0
   -2.6294   -0.3874    0.5856 N   0  0  0  0  0  0  0  0  0  0  0  0
   -1.3785    0.0494   -0.0747 C   0  0  0  0  0  0  0  0  0  0  0  0
   -0.3605   -1.1055   -0.2437 C   0  0  0  0  0  0  0  0  0  0  0  0
   -1.0404   -2.2316   -0.8125 O   0  0  0  0  0  0  0  0  0  0  0  0
    0.8147   -0.6911   -1.1018 C   0  0  0  0  0  0  0  0  0  0  0  0
    1.8781    0.0209   -0.5252 C   0  0  0  0  0  0  0  0  0  0  0  0
    2.9542    0.4314   -1.3061 C   0  0  0  0  0  0  0  0  0  0  0  0
    3.9576    1.1196   -0.6897 O   0  0  0  0  0  0  0  0  0  0  0  0
    2.9992    0.1496   -2.6669 C   0  0  0  0  0  0  0  0  0  0  0  0
    1.9480   -0.5543   -3.2524 C   0  0  0  0  0  0  0  0  0  0  0  0
    0.8626   -0.9696   -2.4764 C   0  0  0  0  0  0  0  0  0  0  0  0
   -4.5077   -0.1355    2.5353 H   0  0  0  0  0  0  0  0  0  0  0  0
   -3.6504   -1.1098    3.7397 H   0  0  0  0  0  0  0  0  0  0  0  0
   -4.2006   -1.8577    2.2316 H   0  0  0  0  0  0  0  0  0  0  0  0
   -1.7443   -1.4144    2.2111 H   0  0  0  0  0  0  0  0  0  0  0  0
   -2.0485    0.3112    2.4968 H   0  0  0  0  0  0  0  0  0  0  0  0
   -3.3296    0.3449    0.4503 H   0  0  0  0  0  0  0  0  0  0  0  0
   -0.9327    0.9053    0.4463 H   0  0  0  0  0  0  0  0  0  0  0  0
   -1.6678    0.4050   -1.0722 H   0  0  0  0  0  0  0  0  0  0  0  0
    0.0151   -1.4333    0.7324 H   0  0  0  0  0  0  0  0  0  0  0  0
   -1.9405   -2.1794   -0.4305 H   0  0  0  0  0  0  0  0  0  0  0  0
    1.8759    0.2567    0.5360 H   0  0  0  0  0  0  0  0  0  0  0  0
    4.6472    1.3096   -1.3467 H   0  0  0  0  0  0  0  0  0  0  0  0
    3.8352    0.4652   -3.2823 H   0  0  0  0  0  0  0  0  0  0  0  0
    1.9700   -0.7847   -4.3144 H   0  0  0  0  0  0  0  0  0  0  0  0
    0.0513   -1.5212   -2.9485 H   0  0  0  0  0  0  0  0  0  0  0  0
  1  2  1  0
  2  3  1  0
  3  4  1  0
  4  5  1  0
  5  6  1  0
  5  7  1  0
  7  8  2  0
  8  9  1  0
  9 10  1  0
  9 11  2  0
 11 12  1  0
 12 13  2  0
 13  7  1  0
  1 14  1  0
  1 15  1  0
  1 16  1  0
  2 17  1  0
  2 18  1  0
  3 19  1  0
  4 20  1  0
  4 21  1  0
  5 22  1  0
  6 23  1  0
  8 24  1  0
 10 25  1  0
 11 26  1  0
 12 27  1  0
 13 28  1  0
M  END
>  <mol_id>  (8) 
STL377784

>  <drugclip_rank>  (8) 
8

>  <conformer>  (8) 
3

>  <align_rmsd>  (8) 
0.312

$$$$
STK618645
     RDKit          3D

 38 38  0  0  0  0  0  0  0  0999 V2000
    4.1491    0.9191   -0.7081 O   0  0  0  0  0  0  0  0  0  0  0  0
    2.8887    0.4664   -0.9764 C   0  0  0  0  0  0  0  0  0  0  0  0
    2.1543    1.0232   -2.0210 C   0  0  0  0  0  0  0  0  0  0  0  0
    0.8753    0.5396   -2.3031 C   0  0  0  0  0  0  0  0  0  0  0  0
    0.3215   -0.5084   -1.5518 C   0  0  0  0  0  0  0  0  0  0  0  0
    1.0824   -1.0554   -0.5049 C   0  0  0  0  0  0  0  0  0  0  0  0
    2.3631   -0.5663   -0.1963 C   0  0  0  0  0  0  0  0  0  0  0  0
    3.1493   -1.1930    0.9241 C   0  0  0  0  0  0  0  0  0  0  0  0
    3.9450   -2.2652    0.4366 O   0  0  0  0  0  0  0  0  0  0  0  0
   -1.0785   -1.0012   -1.8725 C   0  0  1  0  0  0  0  0  0  0  0  0
   -1.2913   -2.3182   -1.3518 O   0  0  0  0  0  0  0  0  0  0  0  0
   -2.1905   -0.0588   -1.3347 C   0  0  0  0  0  0  0  0  0  0  0  0
   -2.3438   -0.2222    0.1253 N   0  0  0  0  0  0  0  0  0  0  0  0
   -3.3655    0.6303    0.7639 C   0  0  0  0  0  0  0  0  0  0  0  0
   -2.9924    2.1202    0.6863 C   0  0  0  0  0  0  0  0  0  0  0  0
   -3.3990    0.2124    2.2466 C   0  0  0  0  0  0  0  0  0  0  0  0
   -4.7637    0.4067    0.1661 C   0  0  0  0  0  0  0  0  0  0  0  0
    4.3653    1.6363   -1.3271 H   0  0  0  0  0  0  0  0  0  0  0  0
    2.5601    1.8263   -2.6285 H   0  0  0  0  0  0  0  0  0  0  0  0
    0.3141    0.9813   -3.1242 H   0  0  0  0  0  0  0  0  0  0  0  0
    0.6793   -1.8840    0.0770 H   0  0  0  0  0  0  0  0  0  0  0  0
    2.4809   -1.5833    1.6990 H   0  0  0  0  0  0  0  0  0  0  0  0
    3.8030   -0.4614    1.4103 H   0  0  0  0  0  0  0  0  0  0  0  0
    4.2458   -2.0001   -0.4500 H   0  0  0  0  0  0  0  0  0  0  0  0
   -1.1723   -1.0826   -2.9619 H   0  0  0  0  0  0  0  0  0  0  0  0
   -1.8621   -2.1840   -0.5675 H   0  0  0  0  0  0  0  0  0  0  0  0
   -3.1257   -0.3596   -1.8190 H   0  0  0  0  0  0  0  0  0  0  0  0
   -1.9729    0.9776   -1.6101 H   0  0  0  0  0  0  0  0  0  0  0  0
   -1.4379   -0.0317    0.5635 H   0  0  0  0  0  0  0  0  0  0  0  0
   -3.0294    2.4997   -0.3401 H   0  0  0  0  0  0  0  0  0  0  0  0
   -1.9837    2.3001    1.0760 H   0  0  0  0  0  0  0  0  0  0  0  0
   -3.6861    2.7278    1.2792 H   0  0  0  0  0  0  0  0  0  0  0  0
   -4.1402    0.7958    2.8054 H   0  0  0  0  0  0  0  0  0  0  0  0
   -3.6621   -0.8464    2.3578 H   0  0  0  0  0  0  0  0  0  0  0  0
   -2.4273    0.3679    2.7308 H   0  0  0  0  0  0  0  0  0  0  0  0
   -5.0295   -0.6567    0.1618 H   0  0  0  0  0  0  0  0  0  0  0  0
   -4.8344    0.7780   -0.8619 H   0  0  0  0  0  0  0  0  0  0  0  0
   -5.5276    0.9337    0.7498 H   0  0  0  0  0  0  0  0  0  0  0  0
  1  2  1  0
  2  3  2  0
  3  4  1  0
  4  5  2  0
  5  6  1  0
  6  7  2  0
  7  8  1  0
  8  9  1  0
  5 10  1  0
 10 11  1  0
 10 12  1  0
 12 13  1  0
 13 14  1  0
 14 15  1  0
 14 16  1  0
 14 17  1  0
  7  2  1  0
  1 18  1  0
  3 19  1  0
  4 20  1  0
  6 21  1  0
  8 22  1  0
  8 23  1  0
  9 24  1  0
 10 25  1  6
 11 26  1  0
 12 27  1  0
 12 28  1  0
 13 29  1  0
 15 30  1  0
 15 31  1  0
 15 32  1  0
 16 33  1  0
 16 34  1  0
 16 35  1  0
 17 36  1  0
 17 37  1  0
 17 38  1  0
M  END
>  <mol_id>  (9) 
STK618645

>  <drugclip_rank>  (9) 
9

>  <conformer>  (9) 
7

>  <align_rmsd>  (9) 
0.439

$$$$
Z1815149210
     RDKit          3D

 29 28  0  0  0  0  0  0  0  0999 V2000
   -0.4589   -1.6000   -0.7578 Cl  0  0  0  0  0  0  0  0  0  0  0  0
   -3.9992   -2.5283    0.1387 C   0  0  0  0  0  0  0  0  0  0  0  0
   -3.0555   -2.2699   -1.0018 C   0  0  0  0  0  0  0  0  0  0  0  0
   -1.7704   -1.6000   -0.5581 C   0  0  0  0  0  0  0  0  0  0  0  0
   -2.1203   -0.3434    0.0479 N   0  0  0  0  0  0  0  0  0  0  0  0
   -0.9452   -1.3413   -1.7757 C   0  0  0  0  0  0  0  0  0  0  0  0
    0.3535   -0.6838   -1.4978 C   0  0  0  0  0  0  0  0  0  0  0  0
    1.4497   -1.4683   -1.2514 C   0  0  0  0  0  0  0  0  0  0  0  0
    2.6942   -0.8996   -0.9845 C   0  0  0  0  0  0  0  0  0  0  0  0
    2.8152    0.4889   -0.9704 C   0  0  0  0  0  0  0  0  0  0  0  0
    4.0498    1.0978   -0.7061 O   0  0  0  0  0  0  0  0  0  0  0  0
    1.6984    1.2576   -1.2212 C   0  0  0  0  0  0  0  0  0  0  0  0
    0.4569    0.7006   -1.4875 C   0  0  0  0  0  0  0  0  0  0  0  0
   -0.6579   -0.2490   -0.9428 H   0  0  0  0  0  0  0  0  0  0  0  0
   -4.9761   -2.0107    0.0160 H   0  0  0  0  0  0  0  0  0  0  0  0
   -3.5590   -2.2802    1.1384 H   0  0  0  0  0  0  0  0  0  0  0  0
   -4.2575   -3.6276    0.1649 H   0  0  0  0  0  0  0  0  0  0  0  0
   -2.9043   -3.1894   -1.5854 H   0  0  0  0  0  0  0  0  0  0  0  0
   -3.5812   -1.5535   -1.6964 H   0  0  0  0  0  0  0  0  0  0  0  0
   -1.2925   -2.3016    0.1569 H   0  0  0  0  0  0  0  0  0  0  0  0
   -3.1671   -0.2579    0.2157 H   0  0  0  0  0  0  0  0  0  0  0  0
   -1.6940   -0.2099    0.9932 H   0  0  0  0  0  0  0  0  0  0  0  0
   -1.5201   -0.6516   -2.4284 H   0  0  0  0  0  0  0  0  0  0  0  0
   -0.8317   -2.3016   -2.3109 H   0  0  0  0  0  0  0  0  0  0  0  0
    1.3880   -2.5551   -1.2552 H   0  0  0  0  0  0  0  0  0  0  0  0
    3.5680   -1.5266   -0.7881 H   0  0  0  0  0  0  0  0  0  0  0  0
    4.6853    1.4145   -1.4302 H   0  0  0  0  0  0  0  0  0  0  0  0
    1.8493    2.3408   -1.1978 H   0  0  0  0  0  0  0  0  0  0  0  0
   -0.4100    1.3390   -1.6825 H   0  0  0  0  0  0  0  0  0  0  0  0
  2  3  1  0
  3  4  1  0
  4  5  1  0
  4  6  1  0
  6  7  1  0
  7  8  2  0
  8  9  1  0
  9 10  2  0
 10 11  1  0
 10 12  1  0
 12 13  2  0
 13  7  1  0
  1 14  1  0
  2 15  1  0
  2 16  1  0
  2 17  1  0
  3 18  1  0
  3 19  1  0
  4 20  1  0
  5 21  1  0
  5 22  1  0
  6 23  1  0
  6 24  1  0
  8 25  1  0
  9 26  1  0
 11 27  1  0
 12 28  1  0
 13 29  1  0
M  END
>  <mol_id>  (10) 
Z1815149210

>  <drugclip_rank>  (10) 
10

>  <conformer>  (10) 
1

>  <align_rmsd>  (10) 
0.317

$$$$
OSSL_882694
     RDKit          3D

 38 38  0  0  0  0  0  0  0  0999 V2000
    4.1491    0.9191   -0.7081 O   0  0  0  0  0  0  0  0  0  0  0  0
    2.8887    0.4664   -0.9764 C   0  0  0  0  0  0  0  0  0  0  0  0
    2.1543    1.0232   -2.0210 C   0  0  0  0  0  0  0  0  0  0  0  0
    0.8753    0.5396   -2.3031 C   0  0  0  0  0  0  0  0  0  0  0  0
    0.3215   -0.5084   -1.5518 C   0  0  0  0  0  0  0  0  0  0  0  0
    1.0824   -1.0554   -0.5049 C   0  0  0  0  0  0  0  0  0  0  0  0
    2.3631   -0.5663   -0.1963 C   0  0  0  0  0  0  0  0  0  0  0  0
    3.1493   -1.1930    0.9241 C   0  0  0  0  0  0  0  0  0  0  0  0
    3.9450   -2.2652    0.4366 O   0  0  0  0  0  0  0  0  0  0  0  0
   -1.0785   -1.0012   -1.8725 C   0  0  1  0  0  0  0  0  0  0  0  0
   -1.2913   -2.3182   -1.3518 O   0  0  0  0  0  0  0  0  0  0  0  0
   -2.1905   -0.0588   -1.3347 C   0  0  0  0  0  0  0  0  0  0  0  0
   -2.3438   -0.2222    0.1253 N   0  0  0  0  0  0  0  0  0  0  0  0
   -3.3655    0.6303    0.7639 C   0  0  0  0  0  0  0  0  0  0  0  0
   -2.9924    2.1202    0.6863 C   0  0  0  0  0  0  0  0  0  0  0  0
   -3.3990    0.2124    2.2466 C   0  0  0  0  0  0  0  0  0  0  0  0
   -4.7637    0.4067    0.1661 C   0  0  0  0  0  0  0  0  0  0  0  0
    4.3653    1.6363   -1.3271 H   0  0  0  0  0  0  0  0  0  0  0  0
    2.5601    1.8263   -2.6285 H   0  0  0  0  0  0  0  0  0  0  0  0
    0.3141    0.9813   -3.1242 H   0  0  0  0  0  0  0  0  0  0  0  0
    0.6793   -1.8840    0.0770 H   0  0  0  0  0  0  0  0  0  0  0  0
    2.4809   -1.5833    1.6990 H   0  0  0  0  0  0  0  0  0  0  0  0
    3.8030   -0.4614    1.4103 H   0  0  0  0  0  0  0  0  0  0  0  0
    4.2458   -2.0001   -0.4500 H   0  0  0  0  0  0  0  0  0  0  0  0
   -1.1723   -1.0826   -2.9619 H   0  0  0  0  0  0  0  0  0  0  0  0
   -1.8621   -2.1840   -0.5675 H   0  0  0  0  0  0  0  0  0  0  0  0
   -3.1257   -0.3596   -1.8190 H   0  0  0  0  0  0  0  0  0  0  0  0
   -1.9729    0.9776   -1.6101 H   0  0  0  0  0  0  0  0  0  0  0  0
   -1.4379   -0.0317    0.5635 H   0  0  0  0  0  0  0  0  0  0  0  0
   -3.0294    2.4997   -0.3401 H   0  0  0  0  0  0  0  0  0  0  0  0
   -1.9837    2.3001    1.0760 H   0  0  0  0  0  0  0  0  0  0  0  0
   -3.6861    2.7278    1.2792 H   0  0  0  0  0  0  0  0  0  0  0  0
   -4.1402    0.7958    2.8054 H   0  0  0  0  0  0  0  0  0  0  0  0
   -3.6621   -0.8464    2.3578 H   0  0  0  0  0  0  0  0  0  0  0  0
   -2.4273    0.3679    2.7308 H   0  0  0  0  0  0  0  0  0  0  0  0
   -5.0295   -0.6567    0.1618 H   0  0  0  0  0  0  0  0  0  0  0  0
   -4.8344    0.7780   -0.8619 H   0  0  0  0  0  0  0  0  0  0  0  0
   -5.5276    0.9337    0.7498 H   0  0  0  0  0  0  0  0  0  0  0  0
  1  2  1  0
  2  3  2  0
  3  4  1  0
  4  5  2  0
  5  6  1  0
  6  7  2  0
  7  8  1  0
  8  9  1  0
  5 10  1  0
 10 11  1  0
 10 12  1  0
 12 13  1  0
 13 14  1  0
 14 15  1  0
 14 16  1  0
 14 17  1  0
  7  2  1  0
  1 18  1  0
  3 19  1  0
  4 20  1  0
  6 21  1  0
  8 22  1  0
  8 23  1  0
  9 24  1  0
 10 25  1  6
 11 26  1  0
 12 27  1  0
 12 28  1  0
 13 29  1  0
 15 30  1  0
 15 31  1  0
 15 32  1  0
 16 33  1  0
 16 34  1  0
 16 35  1  0
 17 36  1  0
 17 37  1  0
 17 38  1  0
M  END
>  <mol_id>  (11) 
OSSL_882694

>  <drugclip_rank>  (11) 
11

>  <conformer>  (11) 
7

>  <align_rmsd>  (11) 
0.439

$$$$
FCG2447641612
     RDKit          3D

 36 36  0  0  0  0  0  0  0  0999 V2000
    1.6293   -0.4156    2.0947 C   0  0  0  0  0  0  0  0  0  0  0  0
    2.5110    0.1261    1.1230 O   0  0  0  0  0  0  0  0  0  0  0  0
    2.2029   -0.0774   -0.1964 C   0  0  0  0  0  0  0  0  0  0  0  0
    1.0788   -0.7682   -0.6615 C   0  0  0  0  0  0  0  0  0  0  0  0
    0.8397   -0.9232   -2.0397 C   0  0  0  0  0  0  0  0  0  0  0  0
    1.7600   -0.3847   -2.9506 C   0  0  0  0  0  0  0  0  0  0  0  0
    2.8851    0.3059   -2.5003 C   0  0  0  0  0  0  0  0  0  0  0  0
    3.0987    0.4573   -1.1312 C   0  0  0  0  0  0  0  0  0  0  0  0
    4.2027    1.1364   -0.6876 O   0  0  0  0  0  0  0  0  0  0  0  0
   -0.3837   -1.6718   -2.5327 C   0  0  0  0  0  0  0  0  0  0  0  0
   -1.5877   -0.8753   -2.8164 N   0  0  0  0  0  0  0  0  0  0  0  0
   -1.3997    0.0585   -3.9244 C   0  0  0  0  0  0  0  0  0  0  0  0
   -2.1759   -0.1902   -1.6525 C   0  0  0  0  0  0  0  0  0  0  0  0
   -2.7394   -1.1269   -0.5484 C   0  0  0  0  0  0  0  0  0  0  0  0
   -3.8515   -2.0307   -1.0805 C   0  0  0  0  0  0  0  0  0  0  0  0
   -3.2693   -0.3348    0.5715 N   0  0  0  0  0  0  0  0  0  0  0  0
    1.5844   -1.5074    2.0230 H   0  0  0  0  0  0  0  0  0  0  0  0
    0.6313    0.0278    2.0140 H   0  0  0  0  0  0  0  0  0  0  0  0
    2.0251   -0.1640    3.0834 H   0  0  0  0  0  0  0  0  0  0  0  0
    0.3686   -1.2008    0.0341 H   0  0  0  0  0  0  0  0  0  0  0  0
    1.6026   -0.5011   -4.0208 H   0  0  0  0  0  0  0  0  0  0  0  0
    3.5802    0.7158   -3.2261 H   0  0  0  0  0  0  0  0  0  0  0  0
    4.7136    1.4436   -1.4517 H   0  0  0  0  0  0  0  0  0  0  0  0
   -0.6256   -2.4683   -1.8180 H   0  0  0  0  0  0  0  0  0  0  0  0
   -0.1066   -2.2255   -3.4408 H   0  0  0  0  0  0  0  0  0  0  0  0
   -0.9845   -0.4513   -4.8009 H   0  0  0  0  0  0  0  0  0  0  0  0
   -2.3642    0.4723   -4.2404 H   0  0  0  0  0  0  0  0  0  0  0  0
   -0.7453    0.8968   -3.6628 H   0  0  0  0  0  0  0  0  0  0  0  0
   -1.4527    0.5090   -1.2135 H   0  0  0  0  0  0  0  0  0  0  0  0
   -3.0139    0.4305   -2.0014 H   0  0  0  0  0  0  0  0  0  0  0  0
   -1.9400   -1.7582   -0.1482 H   0  0  0  0  0  0  0  0  0  0  0  0
   -4.6823   -1.4453   -1.4904 H   0  0  0  0  0  0  0  0  0  0  0  0
   -3.4794   -2.6896   -1.8719 H   0  0  0  0  0  0  0  0  0  0  0  0
   -4.2506   -2.6715   -0.2861 H   0  0  0  0  0  0  0  0  0  0  0  0
   -2.5234    0.2271    0.9791 H   0  0  0  0  0  0  0  0  0  0  0  0
   -3.6011   -0.9589    1.3056 H   0  0  0  0  0  0  0  0  0  0  0  0
  1  2  1  0
  2  3  1  0
  3  4  2  0
  4  5  1  0
  5  6  2  0
  6  7  1  0
  7  8  2  0
  8  9  1  0
  5 10  1  0
 10 11  1  0
 11 12  1  0
 11 13  1  0
 13 14  1  0
 14 15  1  0
 14 16  1  0
  8  3  1  0
  1 17  1  0
  1 18  1  0
  1 19  1  0
  4 20  1  0
  6 21  1  0
  7 22  1  0
  9 23  1  0
 10 24  1  0
 10 25  1  0
 12 26  1  0
 12 27  1  0
 12 28  1  0
 13 29  1  0
 13 30  1  0
 14 31  1  0
 15 32  1  0
 15 33  1  0
 15 34  1  0
 16 35  1  0
 16 36  1  0
M  END
>  <mol_id>  (12) 
FCG2447641612

>  <drugclip_rank>  (12) 
12

>  <conformer>  (12) 
34

>  <align_rmsd>  (12) 
0.281

$$$$
Z2752645466
     RDKit          3D

 34 33  0  0  0  0  0  0  0  0999 V2000
    0.4328   -0.4539   -1.3864 Cl  0  0  0  0  0  0  0  0  0  0  0  0
    0.4328   -0.4539   -1.3864 Cl  0  0  0  0  0  0  0  0  0  0  0  0
    4.0119    1.2114   -0.7377 O   0  0  0  0  0  0  0  0  0  0  0  0
    2.8972    0.5188   -1.2368 C   0  0  0  0  0  0  0  0  0  0  0  0
    2.6921   -0.7716   -0.7908 C   0  0  0  0  0  0  0  0  0  0  0  0
    1.6031   -1.4744   -1.2664 C   0  0  0  0  0  0  0  0  0  0  0  0
    0.7005   -0.9578   -2.1688 C   0  0  0  0  0  0  0  0  0  0  0  0
    0.9469    0.3514   -2.5931 C   0  0  0  0  0  0  0  0  0  0  0  0
    2.0292    1.0752   -2.1322 C   0  0  0  0  0  0  0  0  0  0  0  0
    2.2858    2.7212   -2.7048 Cl  0  0  0  0  0  0  0  0  0  0  0  0
   -0.4722   -1.7109   -2.6821 C   0  0  0  0  0  0  0  0  0  0  0  0
   -1.5863   -1.4606   -1.8304 N   0  0  0  0  0  0  0  0  0  0  0  0
   -1.9744   -0.0979   -1.7048 C   0  0  0  0  0  0  0  0  0  0  0  0
   -3.1211   -0.0256   -0.7077 C   0  0  0  0  0  0  0  0  0  0  0  0
   -2.6122   -0.2929    0.6071 N   0  0  0  0  0  0  0  0  0  0  0  0
   -1.4428   -1.1439    0.5630 C   0  0  0  0  0  0  0  0  0  0  0  0
   -1.5987   -2.1429   -0.5836 C   0  0  0  0  0  0  0  0  0  0  0  0
   -0.8147   -0.7663   -0.9167 H   0  0  0  0  0  0  0  0  0  0  0  0
   -0.8147   -0.7663   -0.9167 H   0  0  0  0  0  0  0  0  0  0  0  0
    4.8516    1.2741   -1.2962 H   0  0  0  0  0  0  0  0  0  0  0  0
    3.3662   -1.2461   -0.0758 H   0  0  0  0  0  0  0  0  0  0  0  0
    1.4779   -2.4809   -0.8949 H   0  0  0  0  0  0  0  0  0  0  0  0
    0.2428    0.7772   -3.3076 H   0  0  0  0  0  0  0  0  0  0  0  0
   -0.6377   -1.4394   -3.7335 H   0  0  0  0  0  0  0  0  0  0  0  0
   -0.1747   -2.7955   -2.6945 H   0  0  0  0  0  0  0  0  0  0  0  0
   -1.1304    0.5088   -1.2837 H   0  0  0  0  0  0  0  0  0  0  0  0
   -2.3451    0.3794   -2.6393 H   0  0  0  0  0  0  0  0  0  0  0  0
   -3.5868    0.9914   -0.7836 H   0  0  0  0  0  0  0  0  0  0  0  0
   -3.8805   -0.7508   -1.0605 H   0  0  0  0  0  0  0  0  0  0  0  0
   -3.3816   -0.7930    1.1383 H   0  0  0  0  0  0  0  0  0  0  0  0
   -1.4834   -1.7867    1.4865 H   0  0  0  0  0  0  0  0  0  0  0  0
   -0.5050   -0.5789    0.5079 H   0  0  0  0  0  0  0  0  0  0  0  0
   -2.5831   -2.6279   -0.4079 H   0  0  0  0  0  0  0  0  0  0  0  0
   -0.8367   -2.9223   -0.5044 H   0  0  0  0  0  0  0  0  0  0  0  0
  3  4  1  0
  4  5  2  0
  5  6  1  0
  6  7  2  0
  7  8  1  0
  8  9  2  0
  9 10  1  0
  7 11  1  0
 11 12  1  0
 12 13  1  0
 13 14  1  0
 14 15  1  0
 15 16  1  0
 16 17  1  0
  9  4  1  0
 17 12  1  0
  1 18  1  0
  2 19  1  0
  3 20  1  0
  5 21  1  0
  6 22  1  0
  8 23  1  0
 11 24  1  0
 11 25  1  0
 13 26  1  0
 13 27  1  0
 14 28  1  0
 14 29  1  0
 15 30  1  0
 16 31  1  0
 16 32  1  0
 17 33  1  0
 17 34  1  0
M  END
>  <mol_id>  (13) 
Z2752645466

>  <drugclip_rank>  (13) 
13

>  <conformer>  (13) 
5

>  <align_rmsd>  (13) 
0.236

$$$$
Z4119887033
     RDKit          3D

 30 29  0  0  0  0  0  0  0  0999 V2000
   -0.1475   -0.5938   -0.7596 Cl  0  0  0  0  0  0  0  0  0  0  0  0
    0.8348    3.5136   -1.6178 C   0  0  0  0  0  0  0  0  0  0  0  0
    1.8521    2.6023   -1.3237 O   0  0  0  0  0  0  0  0  0  0  0  0
    1.7079    1.2206   -1.2872 C   0  0  0  0  0  0  0  0  0  0  0  0
    0.4929    0.6187   -1.5511 C   0  0  0  0  0  0  0  0  0  0  0  0
    0.3709   -0.7679   -1.5090 C   0  0  0  0  0  0  0  0  0  0  0  0
   -0.9547   -1.3710   -1.7997 C   0  0  0  0  0  0  0  0  0  0  0  0
   -1.7985   -1.5362   -0.5653 C   0  0  0  0  0  0  0  0  0  0  0  0
   -1.1119   -2.4379    0.4487 C   0  0  0  0  0  0  0  0  0  0  0  0
   -2.1758   -0.3085    0.0610 N   0  0  0  0  0  0  0  0  0  0  0  0
    1.4903   -1.5137   -1.1987 C   0  0  0  0  0  0  0  0  0  0  0  0
    2.7046   -0.9036   -0.9354 C   0  0  0  0  0  0  0  0  0  0  0  0
    2.8365    0.4876   -0.9753 C   0  0  0  0  0  0  0  0  0  0  0  0
    4.0645    1.0869   -0.7082 O   0  0  0  0  0  0  0  0  0  0  0  0
    0.7208    0.3992   -1.1448 H   0  0  0  0  0  0  0  0  0  0  0  0
    0.0864    3.1255   -2.3253 H   0  0  0  0  0  0  0  0  0  0  0  0
    0.3867    3.8366   -0.6487 H   0  0  0  0  0  0  0  0  0  0  0  0
    1.3351    4.3836   -2.1158 H   0  0  0  0  0  0  0  0  0  0  0  0
   -0.3693    1.2102   -1.7910 H   0  0  0  0  0  0  0  0  0  0  0  0
   -0.8586   -2.3890   -2.2514 H   0  0  0  0  0  0  0  0  0  0  0  0
   -1.5338   -0.7641   -2.5131 H   0  0  0  0  0  0  0  0  0  0  0  0
   -2.7165   -2.0858   -0.8593 H   0  0  0  0  0  0  0  0  0  0  0  0
   -0.3498   -1.8840    1.0267 H   0  0  0  0  0  0  0  0  0  0  0  0
   -0.6442   -3.2669   -0.1571 H   0  0  0  0  0  0  0  0  0  0  0  0
   -1.8443   -2.8710    1.1638 H   0  0  0  0  0  0  0  0  0  0  0  0
   -3.0080   -0.5139    0.6708 H   0  0  0  0  0  0  0  0  0  0  0  0
   -2.4448    0.3978   -0.6357 H   0  0  0  0  0  0  0  0  0  0  0  0
    1.4257   -2.5809   -1.1592 H   0  0  0  0  0  0  0  0  0  0  0  0
    3.5930   -1.4767   -0.6901 H   0  0  0  0  0  0  0  0  0  0  0  0
    4.6547    1.4634   -1.4155 H   0  0  0  0  0  0  0  0  0  0  0  0
  2  3  1  0
  3  4  1  0
  4  5  2  0
  5  6  1  0
  6  7  1  0
  7  8  1  0
  8  9  1  0
  8 10  1  0
  6 11  2  0
 11 12  1  0
 12 13  2  0
 13 14  1  0
 13  4  1  0
  1 15  1  0
  2 16  1  0
  2 17  1  0
  2 18  1  0
  5 19  1  0
  7 20  1  0
  7 21  1  0
  8 22  1  0
  9 23  1  0
  9 24  1  0
  9 25  1  0
 10 26  1  0
 10 27  1  0
 11 28  1  0
 12 29  1  0
 14 30  1  0
M  END
>  <mol_id>  (14) 
Z4119887033

>  <drugclip_rank>  (14) 
14

>  <conformer>  (14) 
10

>  <align_rmsd>  (14) 
0.302

$$$$
Z955123630
     RDKit          3D

 71 70  0  0  0  0  0  0  0  0999 V2000
   -1.5612   -0.9228   -1.3552 O   0  0  0  0  0  0  0  0  0  0  0  0
   -0.6531   -0.8212   -0.2414 S   0  0  0  0  0  0  0  0  0  0  0  0
   -0.3490   -1.9132    0.6482 O   0  0  0  0  0  0  0  0  0  0  0  0
    0.7243   -0.2496   -0.8315 O   0  0  0  0  0  0  0  0  0  0  0  0
   -1.1249    0.3999    0.6863 O   0  0  0  0  0  0  0  0  0  0  0  0
   -4.1038   -0.3370    2.4787 C   0  0  0  0  0  0  0  0  0  0  0  0
   -2.6582   -0.1023    2.0276 C   0  0  0  0  0  0  0  0  0  0  0  0
   -1.7151   -0.9773    2.8536 C   0  0  0  0  0  0  0  0  0  0  0  0
   -2.5805   -0.3843    0.5840 N   0  0  0  0  0  0  0  0  0  0  0  0
   -1.3037    0.0466   -0.0314 C   0  0  0  0  0  0  0  0  0  0  0  0
   -0.3361   -1.1437   -0.2440 C   0  0  0  0  0  0  0  0  0  0  0  0
   -1.0705   -2.2188   -0.8435 O   0  0  0  0  0  0  0  0  0  0  0  0
    0.8541   -0.7546   -1.0941 C   0  0  0  0  0  0  0  0  0  0  0  0
    0.9564   -1.1248   -2.4437 C   0  0  0  0  0  0  0  0  0  0  0  0
    2.0631   -0.7325   -3.1951 C   0  0  0  0  0  0  0  0  0  0  0  0
    2.1900   -1.0941   -4.5053 O   0  0  0  0  0  0  0  0  0  0  0  0
    3.0777    0.0342   -2.6353 C   0  0  0  0  0  0  0  0  0  0  0  0
    2.9792    0.4024   -1.2996 C   0  0  0  0  0  0  0  0  0  0  0  0
    3.9487    1.1441   -0.6932 O   0  0  0  0  0  0  0  0  0  0  0  0
    1.8841    0.0177   -0.5302 C   0  0  0  0  0  0  0  0  0  0  0  0
   -4.1036   -0.3356    2.4777 C   0  0  0  0  0  0  0  0  0  0  0  0
   -2.6613   -0.0934    2.0215 C   0  0  0  0  0  0  0  0  0  0  0  0
   -1.7098   -0.9517    2.8548 C   0  0  0  0  0  0  0  0  0  0  0  0
   -2.5839   -0.3914    0.5808 N   0  0  0  0  0  0  0  0  0  0  0  0
   -1.3104    0.0408   -0.0406 C   0  0  0  0  0  0  0  0  0  0  0  0
   -0.3371   -1.1464   -0.2431 C   0  0  0  0  0  0  0  0  0  0  0  0
   -1.0656   -2.2276   -0.8383 O   0  0  0  0  0  0  0  0  0  0  0  0
    0.8535   -0.7576   -1.0927 C   0  0  0  0  0  0  0  0  0  0  0  0
    0.9617   -1.1364   -2.4393 C   0  0  0  0  0  0  0  0  0  0  0  0
    2.0694   -0.7451   -3.1900 C   0  0  0  0  0  0  0  0  0  0  0  0
    2.2013   -1.1164   -4.4969 O   0  0  0  0  0  0  0  0  0  0  0  0
    3.0780    0.0299   -2.6317 C   0  0  0  0  0  0  0  0  0  0  0  0
    2.9743    0.4047   -1.2981 C   0  0  0  0  0  0  0  0  0  0  0  0
    3.9400    1.1535   -0.6932 O   0  0  0  0  0  0  0  0  0  0  0  0
    1.8790    0.0205   -0.5297 C   0  0  0  0  0  0  0  0  0  0  0  0
    0.5023    0.2593   -1.6384 H   0  0  0  0  0  0  0  0  0  0  0  0
   -0.7283    0.2581    1.5704 H   0  0  0  0  0  0  0  0  0  0  0  0
   -4.7943    0.3292    1.9476 H   0  0  0  0  0  0  0  0  0  0  0  0
   -4.4212   -1.3704    2.2967 H   0  0  0  0  0  0  0  0  0  0  0  0
   -4.2129   -0.1351    3.5501 H   0  0  0  0  0  0  0  0  0  0  0  0
   -2.4226    0.9536    2.2140 H   0  0  0  0  0  0  0  0  0  0  0  0
   -0.6691   -0.7075    2.6812 H   0  0  0  0  0  0  0  0  0  0  0  0
   -1.8440   -2.0400    2.6185 H   0  0  0  0  0  0  0  0  0  0  0  0
   -1.9049   -0.8483    3.9257 H   0  0  0  0  0  0  0  0  0  0  0  0
   -3.3323    0.1358    0.1261 H   0  0  0  0  0  0  0  0  0  0  0  0
   -1.5607    0.4493   -1.0198 H   0  0  0  0  0  0  0  0  0  0  0  0
   -0.8300    0.8680    0.5179 H   0  0  0  0  0  0  0  0  0  0  0  0
    0.0333   -1.5257    0.7123 H   0  0  0  0  0  0  0  0  0  0  0  0
   -1.9384   -2.1799   -0.3903 H   0  0  0  0  0  0  0  0  0  0  0  0
    0.1686   -1.7227   -2.8949 H   0  0  0  0  0  0  0  0  0  0  0  0
    1.4558   -1.6925   -4.7263 H   0  0  0  0  0  0  0  0  0  0  0  0
    3.9258    0.3218   -3.2462 H   0  0  0  0  0  0  0  0  0  0  0  0
    4.6504    1.3191   -1.3422 H   0  0  0  0  0  0  0  0  0  0  0  0
    1.8420    0.3174    0.5143 H   0  0  0  0  0  0  0  0  0  0  0  0
   -4.8000    0.3208    1.9419 H   0  0  0  0  0  0  0  0  0  0  0  0
   -4.4126   -1.3734    2.3054 H   0  0  0  0  0  0  0  0  0  0  0  0
   -4.2128   -0.1243    3.5475 H   0  0  0  0  0  0  0  0  0  0  0  0
   -2.4346    0.9663    2.1961 H   0  0  0  0  0  0  0  0  0  0  0  0
   -0.6662   -0.6744    2.6794 H   0  0  0  0  0  0  0  0  0  0  0  0
   -1.8293   -2.0177    2.6296 H   0  0  0  0  0  0  0  0  0  0  0  0
   -1.9009   -0.8152    3.9256 H   0  0  0  0  0  0  0  0  0  0  0  0
   -3.3381    0.1211    0.1179 H   0  0  0  0  0  0  0  0  0  0  0  0
   -1.5730    0.4340   -1.0320 H   0  0  0  0  0  0  0  0  0  0  0  0
   -0.8412    0.8702    0.5005 H   0  0  0  0  0  0  0  0  0  0  0  0
    0.0317   -1.5201    0.7167 H   0  0  0  0  0  0  0  0  0  0  0  0
   -1.9341   -2.1904   -0.3853 H   0  0  0  0  0  0  0  0  0  0  0  0
    0.1780   -1.7411   -2.8884 H   0  0  0  0  0  0  0  0  0  0  0  0
    1.4734   -1.7234   -4.7134 H   0  0  0  0  0  0  0  0  0  0  0  0
    3.9262    0.3193   -3.2417 H   0  0  0  0  0  0  0  0  0  0  0  0
    4.6440    1.3251   -1.3408 H   0  0  0  0  0  0  0  0  0  0  0  0
    1.8349    0.3233    0.5133 H   0  0  0  0  0  0  0  0  0  0  0  0
  1  2  2  0
  2  3  2  0
  2  4  1  0
  2  5  1  0
  6  7  1  0
  7  8  1  0
  7  9  1  0
  9 10  1  0
 10 11  1  0
 11 12  1  0
 11 13  1  0
 13 14  2  0
 14 15  1  0
 15 16  1  0
 15 17  2  0
 17 18  1  0
 18 19  1  0
 18 20  2  0
 21 22  1  0
 22 23  1  0
 22 24  1  0
 24 25  1  0
 25 26  1  0
 26 27  1  0
 26 28  1  0
 28 29  2  0
 29 30  1  0
 30 31  1  0
 30 32  2  0
 32 33  1  0
 33 34  1  0
 33 35  2  0
 20 13  1  0
 35 28  1  0
  4 36  1  0
  5 37  1  0
  6 38  1  0
  6 39  1  0
  6 40  1  0
  7 41  1  0
  8 42  1  0
  8 43  1  0
  8 44  1  0
  9 45  1  0
 10 46  1  0
 10 47  1  0
 11 48  1  0
 12 49  1  0
 14 50  1  0
 16 51  1  0
 17 52  1  0
 19 53  1  0
 20 54  1  0
 21 55  1  0
 21 56  1  0
 21 57  1  0
 22 58  1  0
 23 59  1  0
 23 60  1  0
 23 61  1  0
 24 62  1  0
 25 63  1  0
 25 64  1  0
 26 65  1  0
 27 66  1  0
 29 67  1  0
 31 68  1  0
 32 69  1  0
 34 70  1  0
 35 71  1  0
M  END
>  <mol_id>  (15) 
Z955123630

>  <drugclip_rank>  (15) 
15

>  <conformer>  (15) 
1

>  <align_rmsd>  (15) 
0.325

$$$$
FCG928091505
     RDKit          3D

 32 33  0  0  0  0  0  0  0  0999 V2000
   -3.8069    0.2829   -0.4850 C   0  0  0  0  0  0  0  0  0  0  0  0
   -2.9997   -0.8025    0.2162 C   0  0  2  0  0  0  0  0  0  0  0  0
   -1.9617   -0.2440    1.1002 N   0  0  0  0  0  0  0  0  0  0  0  0
   -2.4121   -1.8410   -0.7672 C   0  0  0  0  0  0  0  0  0  0  0  0
   -2.7640   -3.0222   -0.6488 O   0  0  0  0  0  0  0  0  0  0  0  0
   -1.5410   -1.4535   -1.7751 N   0  0  0  0  0  0  0  0  0  0  0  0
   -1.0224   -2.4830   -2.6700 C   0  0  0  0  0  0  0  0  0  0  0  0
    0.3388   -2.9700   -2.1724 C   0  0  0  0  0  0  0  0  0  0  0  0
   -0.7407   -0.2297   -1.7779 C   0  0  0  0  0  0  0  0  0  0  0  0
    0.7421   -0.5198   -1.6394 C   0  0  0  0  0  0  0  0  0  0  0  0
    1.2634   -1.8122   -1.8652 C   0  0  0  0  0  0  0  0  0  0  0  0
    1.6213    0.5290   -1.3344 C   0  0  0  0  0  0  0  0  0  0  0  0
    2.9869    0.2885   -1.2327 C   0  0  0  0  0  0  0  0  0  0  0  0
    3.7954    1.3444   -0.9299 O   0  0  0  0  0  0  0  0  0  0  0  0
    3.5058   -0.9856   -1.4333 C   0  0  0  0  0  0  0  0  0  0  0  0
    2.6426   -2.0366   -1.7461 C   0  0  0  0  0  0  0  0  0  0  0  0
   -4.5583   -0.1657   -1.1443 H   0  0  0  0  0  0  0  0  0  0  0  0
   -4.3323    0.9078    0.2456 H   0  0  0  0  0  0  0  0  0  0  0  0
   -3.1905    0.9429   -1.1013 H   0  0  0  0  0  0  0  0  0  0  0  0
   -3.6958   -1.3584    0.8584 H   0  0  0  0  0  0  0  0  0  0  0  0
   -1.4844   -1.0189    1.5647 H   0  0  0  0  0  0  0  0  0  0  0  0
   -2.4104    0.2931    1.8410 H   0  0  0  0  0  0  0  0  0  0  0  0
   -1.7176   -3.3252   -2.7520 H   0  0  0  0  0  0  0  0  0  0  0  0
   -0.9339   -2.0407   -3.6705 H   0  0  0  0  0  0  0  0  0  0  0  0
    0.2110   -3.5547   -1.2531 H   0  0  0  0  0  0  0  0  0  0  0  0
    0.7867   -3.6214   -2.9315 H   0  0  0  0  0  0  0  0  0  0  0  0
   -0.9064    0.2543   -2.7484 H   0  0  0  0  0  0  0  0  0  0  0  0
   -1.0468    0.4719   -1.0058 H   0  0  0  0  0  0  0  0  0  0  0  0
    1.2448    1.5355   -1.1693 H   0  0  0  0  0  0  0  0  0  0  0  0
    4.7109    1.0254   -0.8750 H   0  0  0  0  0  0  0  0  0  0  0  0
    4.5700   -1.1804   -1.3498 H   0  0  0  0  0  0  0  0  0  0  0  0
    3.0492   -3.0344   -1.8957 H   0  0  0  0  0  0  0  0  0  0  0  0
  1  2  1  0
  2  3  1  0
  2  4  1  0
  4  5  2  0
  4  6  1  0
  6  7  1  0
  7  8  1  0
  6  9  1  0
  9 10  1  0
 10 11  2  0
 10 12  1  0
 12 13  2  0
 13 14  1  0
 13 15  1  0
 15 16  2  0
 11  8  1  0
 16 11  1  0
  1 17  1  0
  1 18  1  0
  1 19  1  0
  2 20  1  1
  3 21  1  0
  3 22  1  0
  7 23  1  0
  7 24  1  0
  8 25  1  0
  8 26  1  0
  9 27  1  0
  9 28  1  0
 12 29  1  0
 14 30  1  0
 15 31  1  0
 16 32  1  0
M  END
>  <mol_id>  (16) 
FCG928091505

>  <drugclip_rank>  (16) 
16

>  <conformer>  (16) 
11

>  <align_rmsd>  (16) 
0.851

$$$$
Z1259339888
     RDKit          3D

 34 33  0  0  0  0  0  0  0  0999 V2000
    0.2003   -0.7296   -0.8950 Cl  0  0  0  0  0  0  0  0  0  0  0  0
    5.4883   -2.5365   -1.9262 C   0  0  0  0  0  0  0  0  0  0  0  0
    5.1188   -1.1717   -1.6856 O   0  0  0  0  0  0  0  0  0  0  0  0
    3.7584   -0.8634   -1.6965 C   0  0  0  0  0  0  0  0  0  0  0  0
    2.8120   -1.8565   -1.9336 C   0  0  0  0  0  0  0  0  0  0  0  0
    1.4533   -1.5320   -1.9412 C   0  0  0  0  0  0  0  0  0  0  0  0
    1.0457   -0.2201   -1.7127 C   0  0  0  0  0  0  0  0  0  0  0  0
    2.0052    0.7512   -1.4791 C   0  0  0  0  0  0  0  0  0  0  0  0
    3.3678    0.4484   -1.4671 C   0  0  0  0  0  0  0  0  0  0  0  0
    4.3250    1.4172   -1.2341 O   0  0  0  0  0  0  0  0  0  0  0  0
   -0.4131    0.1004   -1.7263 C   0  0  0  0  0  0  0  0  0  0  0  0
   -1.0710   -0.0232   -0.4000 C   0  0  0  0  0  0  0  0  0  0  0  0
   -2.5514    0.3348   -0.5766 C   0  0  0  0  0  0  0  0  0  0  0  0
   -3.2023    0.2190    0.7033 N   0  0  0  0  0  0  0  0  0  0  0  0
   -1.0161   -1.4542    0.0739 C   0  0  0  0  0  0  0  0  0  0  0  0
   -1.6591   -2.3000   -0.8069 O   0  0  0  0  0  0  0  0  0  0  0  0
    1.5271   -0.7670   -1.2538 H   0  0  0  0  0  0  0  0  0  0  0  0
    6.5658   -2.6344   -2.1047 H   0  0  0  0  0  0  0  0  0  0  0  0
    4.9993   -2.8100   -2.9060 H   0  0  0  0  0  0  0  0  0  0  0  0
    5.0640   -3.2128   -1.1743 H   0  0  0  0  0  0  0  0  0  0  0  0
    3.1099   -2.8884   -2.1145 H   0  0  0  0  0  0  0  0  0  0  0  0
    0.7616   -2.3349   -2.1292 H   0  0  0  0  0  0  0  0  0  0  0  0
    1.7106    1.7603   -1.3023 H   0  0  0  0  0  0  0  0  0  0  0  0
    4.8856    1.4299   -0.4004 H   0  0  0  0  0  0  0  0  0  0  0  0
   -0.6058    1.1326   -2.1265 H   0  0  0  0  0  0  0  0  0  0  0  0
   -0.8949   -0.5987   -2.4279 H   0  0  0  0  0  0  0  0  0  0  0  0
   -0.7030    0.6641    0.3694 H   0  0  0  0  0  0  0  0  0  0  0  0
   -2.6511    1.3796   -0.9333 H   0  0  0  0  0  0  0  0  0  0  0  0
   -3.0230   -0.2990   -1.3515 H   0  0  0  0  0  0  0  0  0  0  0  0
   -3.0980    1.1142    1.2059 H   0  0  0  0  0  0  0  0  0  0  0  0
   -4.1962   -0.0321    0.4968 H   0  0  0  0  0  0  0  0  0  0  0  0
   -1.5371   -1.4820    1.0576 H   0  0  0  0  0  0  0  0  0  0  0  0
    0.0255   -1.7897    0.2431 H   0  0  0  0  0  0  0  0  0  0  0  0
   -2.0048   -3.0833   -0.2819 H   0  0  0  0  0  0  0  0  0  0  0  0
  2  3  1  0
  3  4  1  0
  4  5  2  0
  5  6  1  0
  6  7  2  0
  7  8  1  0
  8  9  2  0
  9 10  1  0
  7 11  1  0
 11 12  1  0
 12 13  1  0
 13 14  1  0
 12 15  1  0
 15 16  1  0
  9  4  1  0
  1 17  1  0
  2 18  1  0
  2 19  1  0
  2 20  1  0
  5 21  1  0
  6 22  1  0
  8 23  1  0
 10 24  1  0
 11 25  1  0
 11 26  1  0
 12 27  1  0
 13 28  1  0
 13 29  1  0
 14 30  1  0
 14 31  1  0
 15 32  1  0
 15 33  1  0
 16 34  1  0
M  END
>  <mol_id>  (17) 
Z1259339888

>  <drugclip_rank>  (17) 
17

>  <conformer>  (17) 
31

>  <align_rmsd>  (17) 
0.921

$$$$
Z3071621361
     RDKit          3D

 45 44  0  0  0  0  0  0  0  0999 V2000
   -1.3664   -0.2519    1.3927 O   0  0  0  0  0  0  0  0  0  0  0  0
   -0.8086   -0.3555    0.0684 S   0  0  0  0  0  0  0  0  0  0  0  0
   -0.4972   -1.6058   -0.5760 O   0  0  0  0  0  0  0  0  0  0  0  0
   -1.7752    0.4844   -0.8978 O   0  0  0  0  0  0  0  0  0  0  0  0
    0.5286    0.5289    0.0125 O   0  0  0  0  0  0  0  0  0  0  0  0
   -3.3912    0.1666    2.2848 C   0  0  0  0  0  0  0  0  0  0  0  0
   -3.3585    0.6105    0.8096 C   0  0  0  0  0  0  0  0  0  0  0  0
   -4.7584    0.4020    0.2103 C   0  0  0  0  0  0  0  0  0  0  0  0
   -2.9807    2.1002    0.7577 C   0  0  0  0  0  0  0  0  0  0  0  0
   -2.3412   -0.2345    0.1542 N   0  0  0  0  0  0  0  0  0  0  0  0
   -2.1834   -0.0403   -1.3012 C   0  0  0  0  0  0  0  0  0  0  0  0
   -1.0853   -0.9847   -1.8623 C   0  0  2  0  0  0  0  0  0  0  0  0
   -1.2947   -2.3075   -1.3554 O   0  0  0  0  0  0  0  0  0  0  0  0
    0.3218   -0.5078   -1.5538 C   0  0  0  0  0  0  0  0  0  0  0  0
    0.9143    0.4736   -2.3617 C   0  0  0  0  0  0  0  0  0  0  0  0
    2.1936    0.9542   -2.0774 C   0  0  0  0  0  0  0  0  0  0  0  0
    2.8951    0.4527   -0.9822 C   0  0  0  0  0  0  0  0  0  0  0  0
    4.1401    0.9353   -0.6926 O   0  0  0  0  0  0  0  0  0  0  0  0
    2.3458   -0.5391   -0.1652 C   0  0  0  0  0  0  0  0  0  0  0  0
    1.0476   -0.9971   -0.4547 C   0  0  0  0  0  0  0  0  0  0  0  0
    3.0872   -1.0654    1.0377 C   0  0  0  0  0  0  0  0  0  0  0  0
    2.8768   -2.4649    1.2125 O   0  0  0  0  0  0  0  0  0  0  0  0
   -2.2010    1.1762   -0.3501 H   0  0  0  0  0  0  0  0  0  0  0  0
    1.0392    0.2314   -0.7689 H   0  0  0  0  0  0  0  0  0  0  0  0
   -2.4182    0.3101    2.7701 H   0  0  0  0  0  0  0  0  0  0  0  0
   -3.6578   -0.8931    2.3778 H   0  0  0  0  0  0  0  0  0  0  0  0
   -4.1295    0.7426    2.8549 H   0  0  0  0  0  0  0  0  0  0  0  0
   -5.5196    0.9213    0.8044 H   0  0  0  0  0  0  0  0  0  0  0  0
   -5.0279   -0.6603    0.1881 H   0  0  0  0  0  0  0  0  0  0  0  0
   -4.8297    0.7913   -0.8110 H   0  0  0  0  0  0  0  0  0  0  0  0
   -1.9706    2.2699    1.1484 H   0  0  0  0  0  0  0  0  0  0  0  0
   -3.6712    2.6996    1.3626 H   0  0  0  0  0  0  0  0  0  0  0  0
   -3.0186    2.4978   -0.2619 H   0  0  0  0  0  0  0  0  0  0  0  0
   -1.4355   -0.0585    0.5990 H   0  0  0  0  0  0  0  0  0  0  0  0
   -3.1223   -0.3168   -1.7928 H   0  0  0  0  0  0  0  0  0  0  0  0
   -1.9507    0.9989   -1.5535 H   0  0  0  0  0  0  0  0  0  0  0  0
   -1.1955   -1.0537   -2.9511 H   0  0  0  0  0  0  0  0  0  0  0  0
   -1.8627   -2.1818   -0.5673 H   0  0  0  0  0  0  0  0  0  0  0  0
    0.3789    0.8737   -3.2203 H   0  0  0  0  0  0  0  0  0  0  0  0
    2.6229    1.7191   -2.7174 H   0  0  0  0  0  0  0  0  0  0  0  0
    4.3856    1.5958   -1.3613 H   0  0  0  0  0  0  0  0  0  0  0  0
    0.5985   -1.7539    0.1890 H   0  0  0  0  0  0  0  0  0  0  0  0
    4.1672   -0.9193    0.9428 H   0  0  0  0  0  0  0  0  0  0  0  0
    2.7461   -0.5481    1.9399 H   0  0  0  0  0  0  0  0  0  0  0  0
    2.9008   -2.8612    0.3240 H   0  0  0  0  0  0  0  0  0  0  0  0
  1  2  2  0
  2  3  2  0
  2  4  1  0
  2  5  1  0
  6  7  1  0
  7  8  1  0
  7  9  1  0
  7 10  1  0
 10 11  1  0
 11 12  1  0
 12 13  1  0
 12 14  1  0
 14 15  2  0
 15 16  1  0
 16 17  2  0
 17 18  1  0
 17 19  1  0
 19 20  2  0
 19 21  1  0
 21 22  1  0
 20 14  1  0
  4 23  1  0
  5 24  1  0
  6 25  1  0
  6 26  1  0
  6 27  1  0
  8 28  1  0
  8 29  1  0
  8 30  1  0
  9 31  1  0
  9 32  1  0
  9 33  1  0
 10 34  1  0
 11 35  1  0
 11 36  1  0
 12 37  1  6
 13 38  1  0
 15 39  1  0
 16 40  1  0
 18 41  1  0
 20 42  1  0
 21 43  1  0
 21 44  1  0
 22 45  1  0
M  END
>  <mol_id>  (18) 
Z3071621361

>  <drugclip_rank>  (18) 
18

>  <conformer>  (18) 
21

>  <align_rmsd>  (18) 
0.414

$$$$
Z203038576
     RDKit          3D

 27 26  0  0  0  0  0  0  0  0999 V2000
    0.7446    0.0734   -0.2036 Cl  0  0  0  0  0  0  0  0  0  0  0  0
   -1.5712   -2.2753   -1.4156 O   0  0  0  0  0  0  0  0  0  0  0  0
   -1.6469   -0.9096   -1.6031 C   0  0  0  0  0  0  0  0  0  0  0  0
   -1.8981   -0.1573   -0.3112 C   0  0  1  0  0  0  0  0  0  0  0  0
   -3.1520   -0.5939    0.2731 N   0  0  0  0  0  0  0  0  0  0  0  0
   -0.7972   -0.3881    0.6898 C   0  0  0  0  0  0  0  0  0  0  0  0
    0.5231    0.0587    0.1750 C   0  0  0  0  0  0  0  0  0  0  0  0
    1.3360   -0.8144   -0.5256 C   0  0  0  0  0  0  0  0  0  0  0  0
    2.5680   -0.4156   -1.0120 C   0  0  0  0  0  0  0  0  0  0  0  0
    3.0036    0.8934   -0.7936 C   0  0  0  0  0  0  0  0  0  0  0  0
    4.2530    1.2901   -1.2894 O   0  0  0  0  0  0  0  0  0  0  0  0
    2.1934    1.7884   -0.0870 C   0  0  0  0  0  0  0  0  0  0  0  0
    0.9640    1.3697    0.3914 C   0  0  0  0  0  0  0  0  0  0  0  0
   -0.5454   -0.2945   -0.4943 H   0  0  0  0  0  0  0  0  0  0  0  0
   -2.1106   -2.6034   -0.6653 H   0  0  0  0  0  0  0  0  0  0  0  0
   -0.7502   -0.5231   -2.1254 H   0  0  0  0  0  0  0  0  0  0  0  0
   -2.5160   -0.7333   -2.2707 H   0  0  0  0  0  0  0  0  0  0  0  0
   -1.9937    0.9161   -0.5615 H   0  0  0  0  0  0  0  0  0  0  0  0
   -2.9148   -1.4689    0.8293 H   0  0  0  0  0  0  0  0  0  0  0  0
   -3.4133    0.1082    1.0291 H   0  0  0  0  0  0  0  0  0  0  0  0
   -0.7944   -1.4557    0.9877 H   0  0  0  0  0  0  0  0  0  0  0  0
   -1.0863    0.1626    1.6131 H   0  0  0  0  0  0  0  0  0  0  0  0
    1.0550   -1.8390   -0.7266 H   0  0  0  0  0  0  0  0  0  0  0  0
    3.1998   -1.1175   -1.5644 H   0  0  0  0  0  0  0  0  0  0  0  0
    5.1035    1.0937   -0.7418 H   0  0  0  0  0  0  0  0  0  0  0  0
    2.5847    2.7726    0.0450 H   0  0  0  0  0  0  0  0  0  0  0  0
    0.3503    2.0777    0.9366 H   0  0  0  0  0  0  0  0  0  0  0  0
  2  3  1  0
  3  4  1  0
  4  5  1  0
  4  6  1  0
  6  7  1  0
  7  8  2  0
  8  9  1  0
  9 10  2  0
 10 11  1  0
 10 12  1  0
 12 13  2  0
 13  7  1  0
  1 14  1  0
  2 15  1  0
  3 16  1  0
  3 17  1  0
  4 18  1  6
  5 19  1  0
  5 20  1  0
  6 21  1  0
  6 22  1  0
  8 23  1  0
  9 24  1  0
 11 25  1  0
 12 26  1  0
 13 27  1  0
M  END
>  <mol_id>  (19) 
Z203038576

>  <drugclip_rank>  (19) 
19

>  <conformer>  (19) 
6

>  <align_rmsd>  (19) 
0.926

$$$$
FCG928091521
     RDKit          3D

 32 33  0  0  0  0  0  0  0  0999 V2000
   -2.2322   -2.1244    2.1039 C   0  0  0  0  0  0  0  0  0  0  0  0
   -2.9509   -1.6162    0.8619 C   0  0  1  0  0  0  0  0  0  0  0  0
   -2.9132   -0.1456    0.7693 N   0  0  0  0  0  0  0  0  0  0  0  0
   -2.4686   -2.2849   -0.4496 C   0  0  0  0  0  0  0  0  0  0  0  0
   -3.2605   -3.0300   -1.0419 O   0  0  0  0  0  0  0  0  0  0  0  0
   -1.1942   -2.0513   -0.9493 N   0  0  0  0  0  0  0  0  0  0  0  0
   -0.7582   -2.8119   -2.1185 C   0  0  0  0  0  0  0  0  0  0  0  0
   -0.0568   -1.9126   -3.1325 C   0  0  0  0  0  0  0  0  0  0  0  0
   -0.1368   -1.3371   -0.2336 C   0  0  0  0  0  0  0  0  0  0  0  0
    0.9917   -0.8351   -1.1093 C   0  0  0  0  0  0  0  0  0  0  0  0
    1.0482   -1.1199   -2.4854 C   0  0  0  0  0  0  0  0  0  0  0  0
    2.0195   -0.0777   -0.5271 C   0  0  0  0  0  0  0  0  0  0  0  0
    3.0684    0.3967   -1.3066 C   0  0  0  0  0  0  0  0  0  0  0  0
    4.0380    1.1285   -0.6870 O   0  0  0  0  0  0  0  0  0  0  0  0
    3.1198    0.1337   -2.6702 C   0  0  0  0  0  0  0  0  0  0  0  0
    2.1057   -0.6215   -3.2602 C   0  0  0  0  0  0  0  0  0  0  0  0
   -1.2258   -1.7112    2.2111 H   0  0  0  0  0  0  0  0  0  0  0  0
   -2.7885   -1.8498    3.0072 H   0  0  0  0  0  0  0  0  0  0  0  0
   -2.1413   -3.2156    2.0817 H   0  0  0  0  0  0  0  0  0  0  0  0
   -4.0081   -1.8970    0.9625 H   0  0  0  0  0  0  0  0  0  0  0  0
   -3.4019    0.2497    1.5715 H   0  0  0  0  0  0  0  0  0  0  0  0
   -3.4491    0.1372   -0.0532 H   0  0  0  0  0  0  0  0  0  0  0  0
   -0.0811   -3.5976   -1.7591 H   0  0  0  0  0  0  0  0  0  0  0  0
   -1.5982   -3.3131   -2.6099 H   0  0  0  0  0  0  0  0  0  0  0  0
   -0.7760   -1.2078   -3.5673 H   0  0  0  0  0  0  0  0  0  0  0  0
    0.3442   -2.5328   -3.9424 H   0  0  0  0  0  0  0  0  0  0  0  0
   -0.5504   -0.4866    0.3081 H   0  0  0  0  0  0  0  0  0  0  0  0
    0.2828   -2.0452    0.4907 H   0  0  0  0  0  0  0  0  0  0  0  0
    2.0027    0.1504    0.5359 H   0  0  0  0  0  0  0  0  0  0  0  0
    4.6903    1.4020   -1.3524 H   0  0  0  0  0  0  0  0  0  0  0  0
    3.9317    0.5059   -3.2864 H   0  0  0  0  0  0  0  0  0  0  0  0
    2.1429   -0.8213   -4.3288 H   0  0  0  0  0  0  0  0  0  0  0  0
  1  2  1  0
  2  3  1  0
  2  4  1  0
  4  5  2  0
  4  6  1  0
  6  7  1  0
  7  8  1  0
  6  9  1  0
  9 10  1  0
 10 11  2  0
 10 12  1  0
 12 13  2  0
 13 14  1  0
 13 15  1  0
 15 16  2  0
 11  8  1  0
 16 11  1  0
  1 17  1  0
  1 18  1  0
  1 19  1  0
  2 20  1  1
  3 21  1  0
  3 22  1  0
  7 23  1  0
  7 24  1  0
  8 25  1  0
  8 26  1  0
  9 27  1  0
  9 28  1  0
 12 29  1  0
 14 30  1  0
 15 31  1  0
 16 32  1  0
M  END
>  <mol_id>  (20) 
FCG928091521

>  <drugclip_rank>  (20) 
20

>  <conformer>  (20) 
10

>  <align_rmsd>  (20) 
0.368

$$$$
FCG3364299245
     RDKit          3D

 33 34  0  0  0  0  0  0  0  0999 V2000
   -3.3485   -0.5557    0.7454 N   0  0  0  0  0  0  0  0  0  0  0  0
   -3.3581    0.8679    0.3850 C   0  0  0  0  0  0  0  0  0  0  0  0
   -2.1264    1.6656    0.9241 C   0  0  0  0  0  0  0  0  0  0  0  0
   -2.5138    3.1576    0.9189 C   0  0  0  0  0  0  0  0  0  0  0  0
   -0.8604    1.4930    0.1695 N   0  0  0  0  0  0  0  0  0  0  0  0
    0.2840    2.1634    0.8265 C   0  0  0  0  0  0  0  0  0  0  0  0
    1.6731    1.5001    0.7227 C   0  0  0  0  0  0  0  0  0  0  0  0
   -0.5618    0.1137   -0.2316 C   0  0  0  0  0  0  0  0  0  0  0  0
    0.7238    0.0321   -1.0297 C   0  0  0  0  0  0  0  0  0  0  0  0
    1.8457    0.7300   -0.5541 C   0  0  0  0  0  0  0  0  0  0  0  0
    0.8304   -0.7499   -2.1858 C   0  0  0  0  0  0  0  0  0  0  0  0
    2.0452   -0.8285   -2.8677 C   0  0  0  0  0  0  0  0  0  0  0  0
    3.1622   -0.1402   -2.3918 C   0  0  0  0  0  0  0  0  0  0  0  0
    3.0592    0.6284   -1.2333 C   0  0  0  0  0  0  0  0  0  0  0  0
    4.1500    1.2884   -0.7441 O   0  0  0  0  0  0  0  0  0  0  0  0
   -4.2129   -0.9863    0.4197 H   0  0  0  0  0  0  0  0  0  0  0  0
   -3.3448   -0.6479    1.7602 H   0  0  0  0  0  0  0  0  0  0  0  0
   -4.2811    1.2952    0.7949 H   0  0  0  0  0  0  0  0  0  0  0  0
   -3.4236    0.9677   -0.7049 H   0  0  0  0  0  0  0  0  0  0  0  0
   -1.9703    1.3600    1.9681 H   0  0  0  0  0  0  0  0  0  0  0  0
   -2.6619    3.5243   -0.1032 H   0  0  0  0  0  0  0  0  0  0  0  0
   -3.4460    3.3188    1.4720 H   0  0  0  0  0  0  0  0  0  0  0  0
   -1.7549    3.7836    1.3990 H   0  0  0  0  0  0  0  0  0  0  0  0
    0.3594    3.1618    0.3763 H   0  0  0  0  0  0  0  0  0  0  0  0
    0.0940    2.3240    1.8960 H   0  0  0  0  0  0  0  0  0  0  0  0
    2.4379    2.2779    0.8266 H   0  0  0  0  0  0  0  0  0  0  0  0
    1.8051    0.7981    1.5560 H   0  0  0  0  0  0  0  0  0  0  0  0
   -0.4778   -0.5490    0.6389 H   0  0  0  0  0  0  0  0  0  0  0  0
   -1.3576   -0.2633   -0.8814 H   0  0  0  0  0  0  0  0  0  0  0  0
   -0.0313   -1.2981   -2.5586 H   0  0  0  0  0  0  0  0  0  0  0  0
    2.1215   -1.4325   -3.7680 H   0  0  0  0  0  0  0  0  0  0  0  0
    4.1003   -0.2209   -2.9314 H   0  0  0  0  0  0  0  0  0  0  0  0
    4.8990    1.1284   -1.3403 H   0  0  0  0  0  0  0  0  0  0  0  0
  1  2  1  0
  2  3  1  0
  3  4  1  0
  3  5  1  0
  5  6  1  0
  6  7  1  0
  5  8  1  0
  8  9  1  0
  9 10  2  0
  9 11  1  0
 11 12  2  0
 12 13  1  0
 13 14  2  0
 14 15  1  0
 10  7  1  0
 14 10  1  0
  1 16  1  0
  1 17  1  0
  2 18  1  0
  2 19  1  0
  3 20  1  0
  4 21  1  0
  4 22  1  0
  4 23  1  0
  6 24  1  0
  6 25  1  0
  7 26  1  0
  7 27  1  0
  8 28  1  0
  8 29  1  0
 11 30  1  0
 12 31  1  0
 13 32  1  0
 15 33  1  0
M  END
>  <mol_id>  (21) 
FCG3364299245

>  <drugclip_rank>  (21) 
21

>  <conformer>  (21) 
21

>  <align_rmsd>  (21) 
0.402

$$$$
Z3498594783
     RDKit          3D

 37 38  0  0  0  0  0  0  0  0999 V2000
   -5.2914   -1.3407    0.3513 N   0  0  0  0  0  0  0  0  0  0  0  0
   -4.2664   -1.9888   -0.4746 C   0  0  0  0  0  0  0  0  0  0  0  0
   -2.8707   -2.1156    0.1887 C   0  0  0  0  0  0  0  0  0  0  0  0
   -2.9363   -3.0658    1.3956 C   0  0  0  0  0  0  0  0  0  0  0  0
   -1.9884   -2.7408   -0.7617 O   0  0  0  0  0  0  0  0  0  0  0  0
   -2.2828   -0.7430    0.6541 C   0  0  0  0  0  0  0  0  0  0  0  0
   -2.3670    0.3866   -0.2998 N   0  0  0  0  0  0  0  0  0  0  0  0
   -2.0448    1.6734    0.3459 C   0  0  0  0  0  0  0  0  0  0  0  0
   -0.5873    1.7980    0.8197 C   0  0  0  0  0  0  0  0  0  0  0  0
   -1.5171    0.2306   -1.4973 C   0  0  0  0  0  0  0  0  0  0  0  0
   -0.0439    0.4594   -1.2558 C   0  0  0  0  0  0  0  0  0  0  0  0
    0.4011    1.2480   -0.1786 C   0  0  0  0  0  0  0  0  0  0  0  0
    0.8983   -0.0501   -2.1545 C   0  0  0  0  0  0  0  0  0  0  0  0
    0.4930   -0.7750   -3.2069 F   0  0  0  0  0  0  0  0  0  0  0  0
    2.2612    0.1782   -1.9892 C   0  0  0  0  0  0  0  0  0  0  0  0
    2.6881    0.9394   -0.9094 C   0  0  0  0  0  0  0  0  0  0  0  0
    1.7740    1.4729   -0.0056 C   0  0  0  0  0  0  0  0  0  0  0  0
    4.0109    1.1923   -0.6954 O   0  0  0  0  0  0  0  0  0  0  0  0
   -5.0305   -0.3567    0.4488 H   0  0  0  0  0  0  0  0  0  0  0  0
   -6.1665   -1.3331   -0.1724 H   0  0  0  0  0  0  0  0  0  0  0  0
   -4.1794   -1.4496   -1.4259 H   0  0  0  0  0  0  0  0  0  0  0  0
   -4.6229   -2.9901   -0.7474 H   0  0  0  0  0  0  0  0  0  0  0  0
   -1.9389   -3.2187    1.8240 H   0  0  0  0  0  0  0  0  0  0  0  0
   -3.2959   -4.0558    1.0920 H   0  0  0  0  0  0  0  0  0  0  0  0
   -3.5928   -2.6854    2.1845 H   0  0  0  0  0  0  0  0  0  0  0  0
   -1.0949   -2.7478   -0.3781 H   0  0  0  0  0  0  0  0  0  0  0  0
   -2.8317   -0.4479    1.5587 H   0  0  0  0  0  0  0  0  0  0  0  0
   -1.2418   -0.9020    0.9630 H   0  0  0  0  0  0  0  0  0  0  0  0
   -2.7228    1.8557    1.1889 H   0  0  0  0  0  0  0  0  0  0  0  0
   -2.2571    2.4791   -0.3705 H   0  0  0  0  0  0  0  0  0  0  0  0
   -0.4605    1.2542    1.7638 H   0  0  0  0  0  0  0  0  0  0  0  0
   -0.3674    2.8549    1.0120 H   0  0  0  0  0  0  0  0  0  0  0  0
   -1.6876   -0.7369   -1.9759 H   0  0  0  0  0  0  0  0  0  0  0  0
   -1.8425    0.9731   -2.2389 H   0  0  0  0  0  0  0  0  0  0  0  0
    2.9551   -0.2406   -2.7084 H   0  0  0  0  0  0  0  0  0  0  0  0
    2.1356    2.0641    0.8326 H   0  0  0  0  0  0  0  0  0  0  0  0
    4.5302    0.7737   -1.4021 H   0  0  0  0  0  0  0  0  0  0  0  0
  1  2  1  0
  2  3  1  0
  3  4  1  0
  3  5  1  0
  3  6  1  0
  6  7  1  0
  7  8  1  0
  8  9  1  0
  7 10  1  0
 10 11  1  0
 11 12  2  0
 11 13  1  0
 13 14  1  0
 13 15  2  0
 15 16  1  0
 16 17  2  0
 16 18  1  0
 12  9  1  0
 17 12  1  0
  1 19  1  0
  1 20  1  0
  2 21  1  0
  2 22  1  0
  4 23  1  0
  4 24  1  0
  4 25  1  0
  5 26  1  0
  6 27  1  0
  6 28  1  0
  8 29  1  0
  8 30  1  0
  9 31  1  0
  9 32  1  0
 10 33  1  0
 10 34  1  0
 15 35  1  0
 17 36  1  0
 18 37  1  0
M  END
>  <mol_id>  (22) 
Z3498594783

>  <drugclip_rank>  (22) 
22

>  <conformer>  (22) 
29

>  <align_rmsd>  (22) 
0.963

$$$$
STK759203
     RDKit          3D

 29 29  0  0  0  0  0  0  0  0999 V2000
   -4.9832   -0.2957    0.2106 C   0  0  0  0  0  0  0  0  0  0  0  0
   -3.6825   -0.5340    0.8302 N   0  0  0  0  0  0  0  0  0  0  0  0
   -3.4034   -1.9660    0.9281 C   0  0  0  0  0  0  0  0  0  0  0  0
   -2.5920    0.2114    0.1845 C   0  0  0  0  0  0  0  0  0  0  0  0
   -2.2231   -0.1696   -1.2540 C   0  0  0  0  0  0  0  0  0  0  0  0
   -0.9595   -1.0043   -1.3108 C   0  0  0  0  0  0  0  0  0  0  0  0
   -1.0197   -2.2283   -1.4298 O   0  0  0  0  0  0  0  0  0  0  0  0
    0.3812   -0.3438   -1.2229 C   0  0  0  0  0  0  0  0  0  0  0  0
    0.5380    1.0372   -1.0490 C   0  0  0  0  0  0  0  0  0  0  0  0
    1.8186    1.5935   -0.9734 C   0  0  0  0  0  0  0  0  0  0  0  0
    2.9379    0.7753   -1.0702 C   0  0  0  0  0  0  0  0  0  0  0  0
    4.1631    1.3658   -0.9905 O   0  0  0  0  0  0  0  0  0  0  0  0
    2.8033   -0.5969   -1.2416 C   0  0  0  0  0  0  0  0  0  0  0  0
    1.5241   -1.1544   -1.3173 C   0  0  0  0  0  0  0  0  0  0  0  0
   -5.7781   -0.7577    0.8070 H   0  0  0  0  0  0  0  0  0  0  0  0
   -5.2046    0.7767    0.1757 H   0  0  0  0  0  0  0  0  0  0  0  0
   -5.0505   -0.6949   -0.8066 H   0  0  0  0  0  0  0  0  0  0  0  0
   -4.1551   -2.4553    1.5577 H   0  0  0  0  0  0  0  0  0  0  0  0
   -2.4337   -2.1409    1.4072 H   0  0  0  0  0  0  0  0  0  0  0  0
   -3.4065   -2.4638   -0.0471 H   0  0  0  0  0  0  0  0  0  0  0  0
   -2.8685    1.2742    0.1935 H   0  0  0  0  0  0  0  0  0  0  0  0
   -1.7118    0.1496    0.8372 H   0  0  0  0  0  0  0  0  0  0  0  0
   -2.0888    0.7279   -1.8682 H   0  0  0  0  0  0  0  0  0  0  0  0
   -3.0184   -0.7288   -1.7590 H   0  0  0  0  0  0  0  0  0  0  0  0
   -0.3104    1.7082   -0.9643 H   0  0  0  0  0  0  0  0  0  0  0  0
    1.9431    2.6648   -0.8373 H   0  0  0  0  0  0  0  0  0  0  0  0
    4.8468    0.6795   -1.0659 H   0  0  0  0  0  0  0  0  0  0  0  0
    3.6702   -1.2459   -1.3176 H   0  0  0  0  0  0  0  0  0  0  0  0
    1.4223   -2.2305   -1.4510 H   0  0  0  0  0  0  0  0  0  0  0  0
  1  2  1  0
  2  3  1  0
  2  4  1  0
  4  5  1  0
  5  6  1  0
  6  7  2  0
  6  8  1  0
  8  9  2  0
  9 10  1  0
 10 11  2  0
 11 12  1  0
 11 13  1  0
 13 14  2  0
 14  8  1  0
  1 15  1  0
  1 16  1  0
  1 17  1  0
  3 18  1  0
  3 19  1  0
  3 20  1  0
  4 21  1  0
  4 22  1  0
  5 23  1  0
  5 24  1  0
  9 25  1  0
 10 26  1  0
 12 27  1  0
 13 28  1  0
 14 29  1  0
M  END
>  <mol_id>  (23) 
STK759203

>  <drugclip_rank>  (23) 
23

>  <conformer>  (23) 
13

>  <align_rmsd>  (23) 
0.722

$$$$
Z1198155517
     RDKit          3D

 31 31  0  0  0  0  0  0  0  0999 V2000
   -1.6859   -0.6343    2.8543 C   0  0  0  0  0  0  0  0  0  0  0  0
   -2.7322    0.0272    1.9577 C   0  0  0  0  0  0  0  0  0  0  0  0
   -4.1351   -0.3355    2.4531 C   0  0  0  0  0  0  0  0  0  0  0  0
   -2.6263   -0.3873    0.5483 N   0  0  0  0  0  0  0  0  0  0  0  0
   -1.3762    0.0684   -0.1034 C   0  0  0  0  0  0  0  0  0  0  0  0
   -0.3670   -1.0951   -0.2615 C   0  0  0  0  0  0  0  0  0  0  0  0
   -1.0555   -2.2159   -0.8317 O   0  0  0  0  0  0  0  0  0  0  0  0
    0.8174   -0.6932   -1.1127 C   0  0  0  0  0  0  0  0  0  0  0  0
    0.8828   -0.9932   -2.4819 C   0  0  0  0  0  0  0  0  0  0  0  0
    1.9775   -0.5893   -3.2506 C   0  0  0  0  0  0  0  0  0  0  0  0
    3.0210    0.1245   -2.6631 C   0  0  0  0  0  0  0  0  0  0  0  0
    2.9590    0.4273   -1.3075 C   0  0  0  0  0  0  0  0  0  0  0  0
    3.9544    1.1256   -0.6894 O   0  0  0  0  0  0  0  0  0  0  0  0
    1.8735    0.0281   -0.5338 C   0  0  0  0  0  0  0  0  0  0  0  0
   -1.8697   -0.3918    3.9068 H   0  0  0  0  0  0  0  0  0  0  0  0
   -1.7051   -1.7253    2.7553 H   0  0  0  0  0  0  0  0  0  0  0  0
   -0.6765   -0.2841    2.6174 H   0  0  0  0  0  0  0  0  0  0  0  0
   -2.6269    1.1171    2.0280 H   0  0  0  0  0  0  0  0  0  0  0  0
   -4.3111   -1.4163    2.4062 H   0  0  0  0  0  0  0  0  0  0  0  0
   -4.9065    0.1602    1.8530 H   0  0  0  0  0  0  0  0  0  0  0  0
   -4.2732   -0.0169    3.4922 H   0  0  0  0  0  0  0  0  0  0  0  0
   -3.4082    0.0351    0.0416 H   0  0  0  0  0  0  0  0  0  0  0  0
   -1.6586    0.4144   -1.1069 H   0  0  0  0  0  0  0  0  0  0  0  0
   -0.9284    0.9325    0.4018 H   0  0  0  0  0  0  0  0  0  0  0  0
   -0.0010   -1.4298    0.7149 H   0  0  0  0  0  0  0  0  0  0  0  0
   -1.9233   -2.2021   -0.3781 H   0  0  0  0  0  0  0  0  0  0  0  0
    0.0779   -1.5531   -2.9553 H   0  0  0  0  0  0  0  0  0  0  0  0
    2.0131   -0.8363   -4.3085 H   0  0  0  0  0  0  0  0  0  0  0  0
    3.8644    0.4311   -3.2728 H   0  0  0  0  0  0  0  0  0  0  0  0
    4.6529    1.3042   -1.3402 H   0  0  0  0  0  0  0  0  0  0  0  0
    1.8576    0.2796    0.5238 H   0  0  0  0  0  0  0  0  0  0  0  0
  1  2  1  0
  2  3  1  0
  2  4  1  0
  4  5  1  0
  5  6  1  0
  6  7  1  0
  6  8  1  0
  8  9  2  0
  9 10  1  0
 10 11  2  0
 11 12  1  0
 12 13  1  0
 12 14  2  0
 14  8  1  0
  1 15  1  0
  1 16  1  0
  1 17  1  0
  2 18  1  0
  3 19  1  0
  3 20  1  0
  3 21  1  0
  4 22  1  0
  5 23  1  0
  5 24  1  0
  6 25  1  0
  7 26  1  0
  9 27  1  0
 10 28  1  0
 11 29  1  0
 13 30  1  0
 14 31  1  0
M  END
>  <mol_id>  (24) 
Z1198155517

>  <drugclip_rank>  (24) 
24

>  <conformer>  (24) 
9

>  <align_rmsd>  (24) 
0.309

$$$$
OSSL_478049
     RDKit          3D

 27 27  0  0  0  0  0  0  0  0999 V2000
   -2.1171    0.8954   -2.0395 C   0  0  0  0  0  0  0  0  0  0  0  0
   -2.1631   -0.5066   -1.4137 C   0  0  0  0  0  0  0  0  0  0  0  0
   -3.3918   -1.2565   -1.9622 C   0  0  0  0  0  0  0  0  0  0  0  0
   -2.3433   -0.3644    0.0408 N   0  0  0  0  0  0  0  0  0  0  0  0
   -0.8874   -1.3341   -1.7504 C   0  0  0  0  0  0  0  0  0  0  0  0
    0.4485   -0.6796   -1.4691 C   0  0  0  0  0  0  0  0  0  0  0  0
    1.2320   -0.1837   -2.5231 C   0  0  0  0  0  0  0  0  0  0  0  0
    2.4689    0.4156   -2.2714 C   0  0  0  0  0  0  0  0  0  0  0  0
    2.9250    0.5190   -0.9618 C   0  0  0  0  0  0  0  0  0  0  0  0
    4.1258    1.0963   -0.6711 O   0  0  0  0  0  0  0  0  0  0  0  0
    2.1654    0.0345    0.0949 C   0  0  0  0  0  0  0  0  0  0  0  0
    0.9299   -0.5641   -0.1580 C   0  0  0  0  0  0  0  0  0  0  0  0
   -1.3164    1.5090   -1.6116 H   0  0  0  0  0  0  0  0  0  0  0  0
   -3.0582    1.4352   -1.8795 H   0  0  0  0  0  0  0  0  0  0  0  0
   -1.9529    0.8362   -3.1215 H   0  0  0  0  0  0  0  0  0  0  0  0
   -3.3337   -1.3620   -3.0517 H   0  0  0  0  0  0  0  0  0  0  0  0
   -4.3234   -0.7252   -1.7337 H   0  0  0  0  0  0  0  0  0  0  0  0
   -3.4694   -2.2634   -1.5353 H   0  0  0  0  0  0  0  0  0  0  0  0
   -2.4787   -1.2800    0.4667 H   0  0  0  0  0  0  0  0  0  0  0  0
   -3.1874    0.1723    0.2369 H   0  0  0  0  0  0  0  0  0  0  0  0
   -0.9162   -1.6095   -2.8142 H   0  0  0  0  0  0  0  0  0  0  0  0
   -0.9146   -2.2937   -1.2145 H   0  0  0  0  0  0  0  0  0  0  0  0
    0.8815   -0.2596   -3.5498 H   0  0  0  0  0  0  0  0  0  0  0  0
    3.0550    0.7919   -3.1032 H   0  0  0  0  0  0  0  0  0  0  0  0
    4.5306    1.3960   -1.5009 H   0  0  0  0  0  0  0  0  0  0  0  0
    2.5294    0.1247    1.1139 H   0  0  0  0  0  0  0  0  0  0  0  0
    0.3395   -0.9327    0.6775 H   0  0  0  0  0  0  0  0  0  0  0  0
  1  2  1  0
  2  3  1  0
  2  4  1  0
  2  5  1  0
  5  6  1  0
  6  7  2  0
  7  8  1  0
  8  9  2  0
  9 10  1  0
  9 11  1  0
 11 12  2  0
 12  6  1  0
  1 13  1  0
  1 14  1  0
  1 15  1  0
  3 16  1  0
  3 17  1  0
  3 18  1  0
  4 19  1  0
  4 20  1  0
  5 21  1  0
  5 22  1  0
  7 23  1  0
  8 24  1  0
 10 25  1  0
 11 26  1  0
 12 27  1  0
M  END
>  <mol_id>  (25) 
OSSL_478049

>  <drugclip_rank>  (25) 
25

>  <conformer>  (25) 
2

>  <align_rmsd>  (25) 
0.292

$$$$
OSSL_312470
     RDKit          3D

 25 25  0  0  0  0  0  0  0  0999 V2000
    4.2228    0.8733   -0.7912 O   0  0  0  0  0  0  0  0  0  0  0  0
    2.9512    0.4563   -1.0511 C   0  0  0  0  0  0  0  0  0  0  0  0
    2.5611   -0.7812   -0.5587 C   0  0  0  0  0  0  0  0  0  0  0  0
    1.2674   -1.2478   -0.8024 C   0  0  0  0  0  0  0  0  0  0  0  0
    0.3472   -0.4758   -1.5300 C   0  0  0  0  0  0  0  0  0  0  0  0
    0.7739    0.7676   -2.0310 C   0  0  0  0  0  0  0  0  0  0  0  0
    2.0690    1.2357   -1.7896 C   0  0  0  0  0  0  0  0  0  0  0  0
   -1.0626   -0.9638   -1.8136 C   0  0  0  0  0  0  0  0  0  0  0  0
   -1.2773   -2.2872   -1.3049 O   0  0  0  0  0  0  0  0  0  0  0  0
   -2.1979   -0.0422   -1.2835 C   0  0  0  0  0  0  0  0  0  0  0  0
   -2.6457   -0.3576    0.0926 N   0  0  0  0  0  0  0  0  0  0  0  0
   -1.7101    0.1394    1.0986 C   0  0  0  0  0  0  0  0  0  0  0  0
    4.3599    1.7340   -1.2187 H   0  0  0  0  0  0  0  0  0  0  0  0
    3.2609   -1.3875    0.0092 H   0  0  0  0  0  0  0  0  0  0  0  0
    0.9821   -2.2251   -0.4176 H   0  0  0  0  0  0  0  0  0  0  0  0
    0.0995    1.3817   -2.6239 H   0  0  0  0  0  0  0  0  0  0  0  0
    2.3681    2.2002   -2.1873 H   0  0  0  0  0  0  0  0  0  0  0  0
   -1.1572   -1.0406   -2.9039 H   0  0  0  0  0  0  0  0  0  0  0  0
   -1.8718   -2.1548   -0.5364 H   0  0  0  0  0  0  0  0  0  0  0  0
   -3.0731   -0.2391   -1.9166 H   0  0  0  0  0  0  0  0  0  0  0  0
   -1.9737    1.0239   -1.4000 H   0  0  0  0  0  0  0  0  0  0  0  0
   -3.5428    0.1076    0.2451 H   0  0  0  0  0  0  0  0  0  0  0  0
   -0.7724   -0.4201    1.0907 H   0  0  0  0  0  0  0  0  0  0  0  0
   -2.1500    0.0051    2.0922 H   0  0  0  0  0  0  0  0  0  0  0  0
   -1.5021    1.2062    0.9683 H   0  0  0  0  0  0  0  0  0  0  0  0
  1  2  1  0
  2  3  2  0
  3  4  1  0
  4  5  2  0
  5  6  1  0
  6  7  2  0
  5  8  1  0
  8  9  1  0
  8 10  1  0
 10 11  1  0
 11 12  1  0
  7  2  1  0
  1 13  1  0
  3 14  1  0
  4 15  1  0
  6 16  1  0
  7 17  1  0
  8 18  1  0
  9 19  1  0
 10 20  1  0
 10 21  1  0
 11 22  1  0
 12 23  1  0
 12 24  1  0
 12 25  1  0
M  END
>  <mol_id>  (26) 
OSSL_312470

>  <drugclip_rank>  (26) 
26

>  <conformer>  (26) 
5

>  <align_rmsd>  (26) 
0.475

$$$$
STK803113
     RDKit          3D

 25 25  0  0  0  0  0  0  0  0999 V2000
    4.2228    0.8733   -0.7912 O   0  0  0  0  0  0  0  0  0  0  0  0
    2.9512    0.4563   -1.0511 C   0  0  0  0  0  0  0  0  0  0  0  0
    2.5611   -0.7812   -0.5587 C   0  0  0  0  0  0  0  0  0  0  0  0
    1.2674   -1.2478   -0.8024 C   0  0  0  0  0  0  0  0  0  0  0  0
    0.3472   -0.4758   -1.5300 C   0  0  0  0  0  0  0  0  0  0  0  0
    0.7739    0.7676   -2.0310 C   0  0  0  0  0  0  0  0  0  0  0  0
    2.0690    1.2357   -1.7896 C   0  0  0  0  0  0  0  0  0  0  0  0
   -1.0626   -0.9638   -1.8136 C   0  0  0  0  0  0  0  0  0  0  0  0
   -1.2773   -2.2872   -1.3049 O   0  0  0  0  0  0  0  0  0  0  0  0
   -2.1979   -0.0422   -1.2835 C   0  0  0  0  0  0  0  0  0  0  0  0
   -2.6457   -0.3576    0.0926 N   0  0  0  0  0  0  0  0  0  0  0  0
   -1.7101    0.1394    1.0986 C   0  0  0  0  0  0  0  0  0  0  0  0
    4.3599    1.7340   -1.2187 H   0  0  0  0  0  0  0  0  0  0  0  0
    3.2609   -1.3875    0.0092 H   0  0  0  0  0  0  0  0  0  0  0  0
    0.9821   -2.2251   -0.4176 H   0  0  0  0  0  0  0  0  0  0  0  0
    0.0995    1.3817   -2.6239 H   0  0  0  0  0  0  0  0  0  0  0  0
    2.3681    2.2002   -2.1873 H   0  0  0  0  0  0  0  0  0  0  0  0
   -1.1572   -1.0406   -2.9039 H   0  0  0  0  0  0  0  0  0  0  0  0
   -1.8718   -2.1548   -0.5364 H   0  0  0  0  0  0  0  0  0  0  0  0
   -3.0731   -0.2391   -1.9166 H   0  0  0  0  0  0  0  0  0  0  0  0
   -1.9737    1.0239   -1.4000 H   0  0  0  0  0  0  0  0  0  0  0  0
   -3.5428    0.1076    0.2451 H   0  0  0  0  0  0  0  0  0  0  0  0
   -0.7724   -0.4201    1.0907 H   0  0  0  0  0  0  0  0  0  0  0  0
   -2.1500    0.0051    2.0922 H   0  0  0  0  0  0  0  0  0  0  0  0
   -1.5021    1.2062    0.9683 H   0  0  0  0  0  0  0  0  0  0  0  0
  1  2  1  0
  2  3  2  0
  3  4  1  0
  4  5  2  0
  5  6  1  0
  6  7  2  0
  5  8  1  0
  8  9  1  0
  8 10  1  0
 10 11  1  0
 11 12  1  0
  7  2  1  0
  1 13  1  0
  3 14  1  0
  4 15  1  0
  6 16  1  0
  7 17  1  0
  8 18  1  0
  9 19  1  0
 10 20  1  0
 10 21  1  0
 11 22  1  0
 12 23  1  0
 12 24  1  0
 12 25  1  0
M  END
>  <mol_id>  (27) 
STK803113

>  <drugclip_rank>  (27) 
27

>  <conformer>  (27) 
5

>  <align_rmsd>  (27) 
0.475

$$$$
FCG2445467333
     RDKit          3D

 36 37  0  0  0  0  0  0  0  0999 V2000
   -2.9025    2.0151    1.7987 C   0  0  0  0  0  0  0  0  0  0  0  0
   -3.5383    1.5285    0.4889 C   0  0  0  0  0  0  0  0  0  0  0  0
   -4.7075    0.5824    0.8065 C   0  0  0  0  0  0  0  0  0  0  0  0
   -4.0960    2.7055   -0.2113 N   0  0  0  0  0  0  0  0  0  0  0  0
   -2.5046    0.8287   -0.4556 C   0  0  0  0  0  0  0  0  0  0  0  0
   -1.8834   -0.3836    0.1166 N   0  0  0  0  0  0  0  0  0  0  0  0
   -1.8310   -1.4962   -0.8471 C   0  0  0  0  0  0  0  0  0  0  0  0
   -0.9331   -1.2355   -2.0661 C   0  0  0  0  0  0  0  0  0  0  0  0
   -0.5245   -0.1346    0.6368 C   0  0  0  0  0  0  0  0  0  0  0  0
    0.5637   -0.0495   -0.4134 C   0  0  0  0  0  0  0  0  0  0  0  0
    0.3879   -0.6139   -1.6899 C   0  0  0  0  0  0  0  0  0  0  0  0
    1.7921    0.5447   -0.0907 C   0  0  0  0  0  0  0  0  0  0  0  0
    2.8124    0.5961   -1.0338 C   0  0  0  0  0  0  0  0  0  0  0  0
    3.9840    1.1908   -0.6681 O   0  0  0  0  0  0  0  0  0  0  0  0
    2.6393    0.0577   -2.3036 C   0  0  0  0  0  0  0  0  0  0  0  0
    1.4247   -0.5458   -2.6317 C   0  0  0  0  0  0  0  0  0  0  0  0
   -3.6217    2.5770    2.4069 H   0  0  0  0  0  0  0  0  0  0  0  0
   -2.5562    1.1769    2.4127 H   0  0  0  0  0  0  0  0  0  0  0  0
   -2.0477    2.6737    1.6067 H   0  0  0  0  0  0  0  0  0  0  0  0
   -5.1945    0.2284   -0.1096 H   0  0  0  0  0  0  0  0  0  0  0  0
   -5.4708    1.0797    1.4171 H   0  0  0  0  0  0  0  0  0  0  0  0
   -4.3697   -0.2974    1.3653 H   0  0  0  0  0  0  0  0  0  0  0  0
   -3.3553    3.3883   -0.3702 H   0  0  0  0  0  0  0  0  0  0  0  0
   -4.7790    3.1668    0.3893 H   0  0  0  0  0  0  0  0  0  0  0  0
   -1.7415    1.5531   -0.7721 H   0  0  0  0  0  0  0  0  0  0  0  0
   -3.0500    0.5667   -1.3739 H   0  0  0  0  0  0  0  0  0  0  0  0
   -2.8438   -1.7518   -1.1830 H   0  0  0  0  0  0  0  0  0  0  0  0
   -1.4698   -2.3905   -0.3206 H   0  0  0  0  0  0  0  0  0  0  0  0
   -0.7593   -2.1858   -2.5849 H   0  0  0  0  0  0  0  0  0  0  0  0
   -1.4418   -0.5621   -2.7666 H   0  0  0  0  0  0  0  0  0  0  0  0
   -0.2639   -0.9572    1.3159 H   0  0  0  0  0  0  0  0  0  0  0  0
   -0.5133    0.7749    1.2471 H   0  0  0  0  0  0  0  0  0  0  0  0
    1.9586    0.9688    0.8961 H   0  0  0  0  0  0  0  0  0  0  0  0
    4.5977    1.1494   -1.4196 H   0  0  0  0  0  0  0  0  0  0  0  0
    3.4298    0.0976   -3.0458 H   0  0  0  0  0  0  0  0  0  0  0  0
    1.2871   -0.9627   -3.6269 H   0  0  0  0  0  0  0  0  0  0  0  0
  1  2  1  0
  2  3  1  0
  2  4  1  0
  2  5  1  0
  5  6  1  0
  6  7  1  0
  7  8  1  0
  6  9  1  0
  9 10  1  0
 10 11  2  0
 10 12  1  0
 12 13  2  0
 13 14  1  0
 13 15  1  0
 15 16  2  0
 11  8  1  0
 16 11  1  0
  1 17  1  0
  1 18  1  0
  1 19  1  0
  3 20  1  0
  3 21  1  0
  3 22  1  0
  4 23  1  0
  4 24  1  0
  5 25  1  0
  5 26  1  0
  7 27  1  0
  7 28  1  0
  8 29  1  0
  8 30  1  0
  9 31  1  0
  9 32  1  0
 12 33  1  0
 14 34  1  0
 15 35  1  0
 16 36  1  0
M  END
>  <mol_id>  (28) 
FCG2445467333

>  <drugclip_rank>  (28) 
28

>  <conformer>  (28) 
15

>  <align_rmsd>  (28) 
0.402

$$$$
Z3221821579
     RDKit          3D

 33 32  0  0  0  0  0  0  0  0999 V2000
    1.1237   -1.0856   -1.0215 Cl  0  0  0  0  0  0  0  0  0  0  0  0
   -0.6182   -4.3999    0.2720 C   0  0  0  0  0  0  0  0  0  0  0  0
   -1.1700   -3.3076   -0.4445 O   0  0  0  0  0  0  0  0  0  0  0  0
   -1.4684   -2.0929    0.1611 C   0  0  0  0  0  0  0  0  0  0  0  0
   -1.2430   -1.9494    1.3922 O   0  0  0  0  0  0  0  0  0  0  0  0
   -2.0450   -1.0149   -0.6851 C   0  0  0  0  0  0  0  0  0  0  0  0
   -2.3507    0.1730    0.0684 N   0  0  0  0  0  0  0  0  0  0  0  0
   -1.1347   -0.7756   -1.8443 C   0  0  0  0  0  0  0  0  0  0  0  0
    0.2230   -0.3596   -1.5453 C   0  0  0  0  0  0  0  0  0  0  0  0
    0.4906    0.9969   -1.4291 C   0  0  0  0  0  0  0  0  0  0  0  0
    1.7418    1.4931   -1.1510 C   0  0  0  0  0  0  0  0  0  0  0  0
    2.7995    0.6240   -0.9745 C   0  0  0  0  0  0  0  0  0  0  0  0
    4.0725    1.1234   -0.6918 O   0  0  0  0  0  0  0  0  0  0  0  0
    2.5757   -0.7478   -1.0825 C   0  0  0  0  0  0  0  0  0  0  0  0
    1.3042   -1.2042   -1.3629 C   0  0  0  0  0  0  0  0  0  0  0  0
    3.6662   -1.5659   -0.8969 O   0  0  0  0  0  0  0  0  0  0  0  0
    3.6077   -2.9758   -0.9729 C   0  0  0  0  0  0  0  0  0  0  0  0
   -0.1130   -1.4455   -0.5326 H   0  0  0  0  0  0  0  0  0  0  0  0
   -0.4170   -5.2075   -0.4695 H   0  0  0  0  0  0  0  0  0  0  0  0
    0.3487   -4.0450    0.6806 H   0  0  0  0  0  0  0  0  0  0  0  0
   -1.3292   -4.7096    1.0621 H   0  0  0  0  0  0  0  0  0  0  0  0
   -2.9981   -1.4116   -1.0922 H   0  0  0  0  0  0  0  0  0  0  0  0
   -2.9058   -0.1454    0.9112 H   0  0  0  0  0  0  0  0  0  0  0  0
   -3.0182    0.7619   -0.4747 H   0  0  0  0  0  0  0  0  0  0  0  0
   -1.6228   -0.0266   -2.5270 H   0  0  0  0  0  0  0  0  0  0  0  0
   -1.0906   -1.7187   -2.4317 H   0  0  0  0  0  0  0  0  0  0  0  0
   -0.3319    1.7107   -1.5647 H   0  0  0  0  0  0  0  0  0  0  0  0
    1.9492    2.5483   -1.0608 H   0  0  0  0  0  0  0  0  0  0  0  0
    4.6565    1.3188   -1.4950 H   0  0  0  0  0  0  0  0  0  0  0  0
    1.1515   -2.2649   -1.4441 H   0  0  0  0  0  0  0  0  0  0  0  0
    2.9010   -3.2619   -1.7694 H   0  0  0  0  0  0  0  0  0  0  0  0
    4.5864   -3.4193   -1.2515 H   0  0  0  0  0  0  0  0  0  0  0  0
    3.3353   -3.3788    0.0259 H   0  0  0  0  0  0  0  0  0  0  0  0
  2  3  1  0
  3  4  1  0
  4  5  2  0
  4  6  1  0
  6  7  1  0
  6  8  1  0
  8  9  1  0
  9 10  2  0
 10 11  1  0
 11 12  2  0
 12 13  1  0
 12 14  1  0
 14 15  2  0
 14 16  1  0
 16 17  1  0
 15  9  1  0
  1 18  1  0
  2 19  1  0
  2 20  1  0
  2 21  1  0
  6 22  1  0
  7 23  1  0
  7 24  1  0
  8 25  1  0
  8 26  1  0
 10 27  1  0
 11 28  1  0
 13 29  1  0
 15 30  1  0
 17 31  1  0
 17 32  1  0
 17 33  1  0
M  END
>  <mol_id>  (29) 
Z3221821579

>  <drugclip_rank>  (29) 
29

>  <conformer>  (29) 
20

>  <align_rmsd>  (29) 
0.55

$$$$
FCG928091315
     RDKit          3D

 32 33  0  0  0  0  0  0  0  0999 V2000
   -3.9005   -2.5679    1.4990 C   0  0  0  0  0  0  0  0  0  0  0  0
   -2.7299   -1.7887    0.9002 C   0  0  0  0  0  0  0  0  0  0  0  0
   -2.9914   -0.3397    1.0315 N   0  0  0  0  0  0  0  0  0  0  0  0
   -2.5188   -2.1534   -0.5940 C   0  0  0  0  0  0  0  0  0  0  0  0
   -3.3736   -2.8008   -1.2063 O   0  0  0  0  0  0  0  0  0  0  0  0
   -1.3387   -1.7355   -1.2093 N   0  0  0  0  0  0  0  0  0  0  0  0
   -1.1914   -1.9604   -2.6436 C   0  0  0  0  0  0  0  0  0  0  0  0
    0.2422   -2.3445   -2.9989 C   0  0  0  0  0  0  0  0  0  0  0  0
   -0.4648   -0.7121   -0.6330 C   0  0  0  0  0  0  0  0  0  0  0  0
    0.8995   -0.6174   -1.2812 C   0  0  0  0  0  0  0  0  0  0  0  0
    1.2364   -1.3725   -2.4190 C   0  0  0  0  0  0  0  0  0  0  0  0
    1.8478    0.2658   -0.7431 C   0  0  0  0  0  0  0  0  0  0  0  0
    3.1086    0.3762   -1.3185 C   0  0  0  0  0  0  0  0  0  0  0  0
    3.9901    1.2482   -0.7511 O   0  0  0  0  0  0  0  0  0  0  0  0
    3.4536   -0.3810   -2.4315 C   0  0  0  0  0  0  0  0  0  0  0  0
    2.5175   -1.2590   -2.9789 C   0  0  0  0  0  0  0  0  0  0  0  0
   -4.0189   -2.3432    2.5647 H   0  0  0  0  0  0  0  0  0  0  0  0
   -4.8453   -2.3326    0.9954 H   0  0  0  0  0  0  0  0  0  0  0  0
   -3.7356   -3.6466    1.4010 H   0  0  0  0  0  0  0  0  0  0  0  0
   -1.8263   -2.0561    1.4575 H   0  0  0  0  0  0  0  0  0  0  0  0
   -3.8284   -0.1177    0.4879 H   0  0  0  0  0  0  0  0  0  0  0  0
   -3.2351   -0.1339    2.0001 H   0  0  0  0  0  0  0  0  0  0  0  0
   -1.4859   -1.0325   -3.1505 H   0  0  0  0  0  0  0  0  0  0  0  0
   -1.8677   -2.7478   -2.9925 H   0  0  0  0  0  0  0  0  0  0  0  0
    0.4685   -3.3413   -2.6007 H   0  0  0  0  0  0  0  0  0  0  0  0
    0.3411   -2.3846   -4.0898 H   0  0  0  0  0  0  0  0  0  0  0  0
   -0.3241   -0.9107    0.4329 H   0  0  0  0  0  0  0  0  0  0  0  0
   -0.9729    0.2520   -0.7531 H   0  0  0  0  0  0  0  0  0  0  0  0
    1.6072    0.8694    0.1289 H   0  0  0  0  0  0  0  0  0  0  0  0
    4.8199    1.2195   -1.2549 H   0  0  0  0  0  0  0  0  0  0  0  0
    4.4376   -0.3050   -2.8826 H   0  0  0  0  0  0  0  0  0  0  0  0
    2.7905   -1.8560   -3.8463 H   0  0  0  0  0  0  0  0  0  0  0  0
  1  2  1  0
  2  3  1  0
  2  4  1  0
  4  5  2  0
  4  6  1  0
  6  7  1  0
  7  8  1  0
  6  9  1  0
  9 10  1  0
 10 11  2  0
 10 12  1  0
 12 13  2  0
 13 14  1  0
 13 15  1  0
 15 16  2  0
 11  8  1  0
 16 11  1  0
  1 17  1  0
  1 18  1  0
  1 19  1  0
  2 20  1  0
  3 21  1  0
  3 22  1  0
  7 23  1  0
  7 24  1  0
  8 25  1  0
  8 26  1  0
  9 27  1  0
  9 28  1  0
 12 29  1  0
 14 30  1  0
 15 31  1  0
 16 32  1  0
M  END
>  <mol_id>  (30) 
FCG928091315

>  <drugclip_rank>  (30) 
30

>  <conformer>  (30) 
0

>  <align_rmsd>  (30) 
0.518

$$$$
Z1556051334
     RDKit          3D

 77 76  0  0  0  0  0  0  0  0999 V2000
   -1.6308    0.9595   -0.2408 O   0  0  0  0  0  0  0  0  0  0  0  0
   -0.4922    0.1601    0.1376 S   0  0  0  0  0  0  0  0  0  0  0  0
    0.8633    0.6498    0.1281 O   0  0  0  0  0  0  0  0  0  0  0  0
   -0.8154   -0.4607    1.5818 O   0  0  0  0  0  0  0  0  0  0  0  0
   -0.4936   -1.1553   -0.7798 O   0  0  0  0  0  0  0  0  0  0  0  0
   -4.0298   -0.8239    2.4905 C   0  0  0  0  0  0  0  0  0  0  0  0
   -2.7605   -0.0875    2.0193 C   0  0  0  0  0  0  0  0  0  0  0  0
   -1.5780   -0.5622    2.8761 C   0  0  0  0  0  0  0  0  0  0  0  0
   -2.9778    1.4238    2.2154 C   0  0  0  0  0  0  0  0  0  0  0  0
   -2.6056   -0.4215    0.5881 N   0  0  0  0  0  0  0  0  0  0  0  0
   -1.3629    0.0514   -0.0591 C   0  0  0  0  0  0  0  0  0  0  0  0
   -0.3569   -1.1099   -0.2507 C   0  0  0  0  0  0  0  0  0  0  0  0
   -1.0541   -2.2170   -0.8357 O   0  0  0  0  0  0  0  0  0  0  0  0
    0.8194   -0.6977   -1.1079 C   0  0  0  0  0  0  0  0  0  0  0  0
    1.8674    0.0423   -0.5357 C   0  0  0  0  0  0  0  0  0  0  0  0
    2.9497    0.4471   -1.3125 C   0  0  0  0  0  0  0  0  0  0  0  0
    3.9398    1.1596   -0.7003 O   0  0  0  0  0  0  0  0  0  0  0  0
    3.0149    0.1347   -2.6653 C   0  0  0  0  0  0  0  0  0  0  0  0
    1.9789   -0.5955   -3.2355 C   0  0  0  0  0  0  0  0  0  0  0  0
    2.0641   -0.8892   -4.5658 O   0  0  0  0  0  0  0  0  0  0  0  0
    0.8867   -1.0107   -2.4752 C   0  0  0  0  0  0  0  0  0  0  0  0
   -4.0373   -0.8148    2.4779 C   0  0  0  0  0  0  0  0  0  0  0  0
   -2.7644   -0.0813    2.0143 C   0  0  0  0  0  0  0  0  0  0  0  0
   -1.5864   -0.5614    2.8747 C   0  0  0  0  0  0  0  0  0  0  0  0
   -2.9804    1.4293    2.2134 C   0  0  0  0  0  0  0  0  0  0  0  0
   -2.6064   -0.4112    0.5819 N   0  0  0  0  0  0  0  0  0  0  0  0
   -1.3571    0.0552   -0.0583 C   0  0  0  0  0  0  0  0  0  0  0  0
   -0.3609   -1.1142   -0.2542 C   0  0  0  0  0  0  0  0  0  0  0  0
   -1.0671   -2.2095   -0.8499 O   0  0  0  0  0  0  0  0  0  0  0  0
    0.8201   -0.7047   -1.1061 C   0  0  0  0  0  0  0  0  0  0  0  0
    1.8706    0.0268   -0.5272 C   0  0  0  0  0  0  0  0  0  0  0  0
    2.9573    0.4302   -1.2985 C   0  0  0  0  0  0  0  0  0  0  0  0
    3.9483    1.1352   -0.6797 O   0  0  0  0  0  0  0  0  0  0  0  0
    3.0251    0.1232   -2.6519 C   0  0  0  0  0  0  0  0  0  0  0  0
    1.9863   -0.5983   -3.2289 C   0  0  0  0  0  0  0  0  0  0  0  0
    2.0771   -0.8863   -4.5604 O   0  0  0  0  0  0  0  0  0  0  0  0
    0.8894   -1.0113   -2.4743 C   0  0  0  0  0  0  0  0  0  0  0  0
   -1.7492   -0.7571    1.5720 H   0  0  0  0  0  0  0  0  0  0  0  0
    0.4050   -1.2307   -1.1706 H   0  0  0  0  0  0  0  0  0  0  0  0
   -4.2297   -0.6299    3.5506 H   0  0  0  0  0  0  0  0  0  0  0  0
   -4.9152   -0.5029    1.9292 H   0  0  0  0  0  0  0  0  0  0  0  0
   -3.9310   -1.9082    2.3669 H   0  0  0  0  0  0  0  0  0  0  0  0
   -1.3966   -1.6343    2.7492 H   0  0  0  0  0  0  0  0  0  0  0  0
   -1.7721   -0.3870    3.9404 H   0  0  0  0  0  0  0  0  0  0  0  0
   -0.6533   -0.0308    2.6283 H   0  0  0  0  0  0  0  0  0  0  0  0
   -2.0843    2.0057    1.9656 H   0  0  0  0  0  0  0  0  0  0  0  0
   -3.2301    1.6491    3.2585 H   0  0  0  0  0  0  0  0  0  0  0  0
   -3.8006    1.7974    1.5931 H   0  0  0  0  0  0  0  0  0  0  0  0
   -3.3967   -0.0163    0.0826 H   0  0  0  0  0  0  0  0  0  0  0  0
   -0.9005    0.9024    0.4512 H   0  0  0  0  0  0  0  0  0  0  0  0
   -1.6537    0.4178   -1.0525 H   0  0  0  0  0  0  0  0  0  0  0  0
    0.0179   -1.4611    0.7157 H   0  0  0  0  0  0  0  0  0  0  0  0
   -1.9160   -2.2117   -0.3691 H   0  0  0  0  0  0  0  0  0  0  0  0
    1.8479    0.3030    0.5202 H   0  0  0  0  0  0  0  0  0  0  0  0
    4.6769    1.2520   -1.3257 H   0  0  0  0  0  0  0  0  0  0  0  0
    3.8492    0.4485   -3.2827 H   0  0  0  0  0  0  0  0  0  0  0  0
    1.2926   -1.4303   -4.8067 H   0  0  0  0  0  0  0  0  0  0  0  0
    0.0809   -1.5794   -2.9330 H   0  0  0  0  0  0  0  0  0  0  0  0
   -4.2383   -0.6291    3.5395 H   0  0  0  0  0  0  0  0  0  0  0  0
   -4.9185   -0.4857    1.9149 H   0  0  0  0  0  0  0  0  0  0  0  0
   -3.9423   -1.8990    2.3475 H   0  0  0  0  0  0  0  0  0  0  0  0
   -1.4048   -1.6322    2.7419 H   0  0  0  0  0  0  0  0  0  0  0  0
   -1.7863   -0.3945    3.9394 H   0  0  0  0  0  0  0  0  0  0  0  0
   -0.6612   -0.0256    2.6393 H   0  0  0  0  0  0  0  0  0  0  0  0
   -2.0848    2.0097    1.9685 H   0  0  0  0  0  0  0  0  0  0  0  0
   -3.2351    1.6549    3.2561 H   0  0  0  0  0  0  0  0  0  0  0  0
   -3.7998    1.8052    1.5877 H   0  0  0  0  0  0  0  0  0  0  0  0
   -3.3940   -0.0006    0.0736 H   0  0  0  0  0  0  0  0  0  0  0  0
   -0.8899    0.8989    0.4597 H   0  0  0  0  0  0  0  0  0  0  0  0
   -1.6384    0.4327   -1.0504 H   0  0  0  0  0  0  0  0  0  0  0  0
    0.0090   -1.4781    0.7096 H   0  0  0  0  0  0  0  0  0  0  0  0
   -1.9296   -2.1995   -0.3849 H   0  0  0  0  0  0  0  0  0  0  0  0
    1.8505    0.2825    0.5296 H   0  0  0  0  0  0  0  0  0  0  0  0
    4.6805    1.2431   -1.3087 H   0  0  0  0  0  0  0  0  0  0  0  0
    3.8641    0.4340   -3.2644 H   0  0  0  0  0  0  0  0  0  0  0  0
    1.3015   -1.4179   -4.8083 H   0  0  0  0  0  0  0  0  0  0  0  0
    0.0840   -1.5779   -2.9360 H   0  0  0  0  0  0  0  0  0  0  0  0
  1  2  2  0
  2  3  2  0
  2  4  1  0
  2  5  1  0
  6  7  1  0
  7  8  1  0
  7  9  1  0
  7 10  1  0
 10 11  1  0
 11 12  1  0
 12 13  1  0
 12 14  1  0
 14 15  2  0
 15 16  1  0
 16 17  1  0
 16 18  2  0
 18 19  1  0
 19 20  1  0
 19 21  2  0
 22 23  1  0
 23 24  1  0
 23 25  1  0
 23 26  1  0
 26 27  1  0
 27 28  1  0
 28 29  1  0
 28 30  1  0
 30 31  2  0
 31 32  1  0
 32 33  1  0
 32 34  2  0
 34 35  1  0
 35 36  1  0
 35 37  2  0
 21 14  1  0
 37 30  1  0
  4 38  1  0
  5 39  1  0
  6 40  1  0
  6 41  1  0
  6 42  1  0
  8 43  1  0
  8 44  1  0
  8 45  1  0
  9 46  1  0
  9 47  1  0
  9 48  1  0
 10 49  1  0
 11 50  1  0
 11 51  1  0
 12 52  1  0
 13 53  1  0
 15 54  1  0
 17 55  1  0
 18 56  1  0
 20 57  1  0
 21 58  1  0
 22 59  1  0
 22 60  1  0
 22 61  1  0
 24 62  1  0
 24 63  1  0
 24 64  1  0
 25 65  1  0
 25 66  1  0
 25 67  1  0
 26 68  1  0
 27 69  1  0
 27 70  1  0
 28 71  1  0
 29 72  1  0
 31 73  1  0
 33 74  1  0
 34 75  1  0
 36 76  1  0
 37 77  1  0
M  END
>  <mol_id>  (31) 
Z1556051334

>  <drugclip_rank>  (31) 
31

>  <conformer>  (31) 
5

>  <align_rmsd>  (31) 
0.316

$$$$
OSSM_129722
     RDKit          3D

 29 29  0  0  0  0  0  0  0  0999 V2000
   -4.9832   -0.2957    0.2106 C   0  0  0  0  0  0  0  0  0  0  0  0
   -3.6825   -0.5340    0.8302 N   0  0  0  0  0  0  0  0  0  0  0  0
   -3.4034   -1.9660    0.9281 C   0  0  0  0  0  0  0  0  0  0  0  0
   -2.5920    0.2114    0.1845 C   0  0  0  0  0  0  0  0  0  0  0  0
   -2.2231   -0.1696   -1.2540 C   0  0  0  0  0  0  0  0  0  0  0  0
   -0.9595   -1.0043   -1.3108 C   0  0  0  0  0  0  0  0  0  0  0  0
   -1.0197   -2.2283   -1.4298 O   0  0  0  0  0  0  0  0  0  0  0  0
    0.3812   -0.3438   -1.2229 C   0  0  0  0  0  0  0  0  0  0  0  0
    0.5380    1.0372   -1.0490 C   0  0  0  0  0  0  0  0  0  0  0  0
    1.8186    1.5935   -0.9734 C   0  0  0  0  0  0  0  0  0  0  0  0
    2.9379    0.7753   -1.0702 C   0  0  0  0  0  0  0  0  0  0  0  0
    4.1631    1.3658   -0.9905 O   0  0  0  0  0  0  0  0  0  0  0  0
    2.8033   -0.5969   -1.2416 C   0  0  0  0  0  0  0  0  0  0  0  0
    1.5241   -1.1544   -1.3173 C   0  0  0  0  0  0  0  0  0  0  0  0
   -5.7781   -0.7577    0.8070 H   0  0  0  0  0  0  0  0  0  0  0  0
   -5.2046    0.7767    0.1757 H   0  0  0  0  0  0  0  0  0  0  0  0
   -5.0505   -0.6949   -0.8066 H   0  0  0  0  0  0  0  0  0  0  0  0
   -4.1551   -2.4553    1.5577 H   0  0  0  0  0  0  0  0  0  0  0  0
   -2.4337   -2.1409    1.4072 H   0  0  0  0  0  0  0  0  0  0  0  0
   -3.4065   -2.4638   -0.0471 H   0  0  0  0  0  0  0  0  0  0  0  0
   -2.8685    1.2742    0.1935 H   0  0  0  0  0  0  0  0  0  0  0  0
   -1.7118    0.1496    0.8372 H   0  0  0  0  0  0  0  0  0  0  0  0
   -2.0888    0.7279   -1.8682 H   0  0  0  0  0  0  0  0  0  0  0  0
   -3.0184   -0.7288   -1.7590 H   0  0  0  0  0  0  0  0  0  0  0  0
   -0.3104    1.7082   -0.9643 H   0  0  0  0  0  0  0  0  0  0  0  0
    1.9431    2.6648   -0.8373 H   0  0  0  0  0  0  0  0  0  0  0  0
    4.8468    0.6795   -1.0659 H   0  0  0  0  0  0  0  0  0  0  0  0
    3.6702   -1.2459   -1.3176 H   0  0  0  0  0  0  0  0  0  0  0  0
    1.4223   -2.2305   -1.4510 H   0  0  0  0  0  0  0  0  0  0  0  0
  1  2  1  0
  2  3  1  0
  2  4  1  0
  4  5  1  0
  5  6  1  0
  6  7  2  0
  6  8  1  0
  8  9  2  0
  9 10  1  0
 10 11  2  0
 11 12  1  0
 11 13  1  0
 13 14  2  0
 14  8  1  0
  1 15  1  0
  1 16  1  0
  1 17  1  0
  3 18  1  0
  3 19  1  0
  3 20  1  0
  4 21  1  0
  4 22  1  0
  5 23  1  0
  5 24  1  0
  9 25  1  0
 10 26  1  0
 12 27  1  0
 13 28  1  0
 14 29  1  0
M  END
>  <mol_id>  (32) 
OSSM_129722

>  <drugclip_rank>  (32) 
32

>  <conformer>  (32) 
13

>  <align_rmsd>  (32) 
0.722

$$$$
Z4971220652
     RDKit          3D

 37 36  0  0  0  0  0  0  0  0999 V2000
   -0.2473   -0.0517   -0.5220 Br  0  0  0  0  0  0  0  0  0  0  0  0
   -0.2473   -0.0517   -0.5220 Br  0  0  0  0  0  0  0  0  0  0  0  0
    4.0167    1.1301   -0.7003 O   0  0  0  0  0  0  0  0  0  0  0  0
    2.7736    0.5327   -0.9870 C   0  0  0  0  0  0  0  0  0  0  0  0
    1.6826    1.3365   -1.3001 C   0  0  0  0  0  0  0  0  0  0  0  0
    0.4839    0.7062   -1.5755 C   0  0  0  0  0  0  0  0  0  0  0  0
    0.3618   -0.6680   -1.5434 C   0  0  0  0  0  0  0  0  0  0  0  0
    1.4579   -1.4776   -1.2282 C   0  0  0  0  0  0  0  0  0  0  0  0
    2.6717   -0.8452   -0.9492 C   0  0  0  0  0  0  0  0  0  0  0  0
   -0.9071   -1.3825   -1.8303 C   0  0  0  0  0  0  0  0  0  0  0  0
   -1.7064   -1.5856   -0.5537 C   0  0  0  0  0  0  0  0  0  0  0  0
   -2.0371   -0.3626    0.0632 N   0  0  0  0  0  0  0  0  0  0  0  0
   -2.9539    0.5019   -0.5690 C   0  0  0  0  0  0  0  0  0  0  0  0
   -4.2717    0.4463    0.1741 C   0  0  0  0  0  0  0  0  0  0  0  0
   -4.1950   -0.5114    1.2596 N   0  0  0  0  0  0  0  0  0  0  0  0
   -3.1111   -0.0750    2.1478 C   0  0  0  0  0  0  0  0  0  0  0  0
   -1.7786   -0.1846    1.4365 C   0  0  0  0  0  0  0  0  0  0  0  0
   -1.6766   -0.1341   -0.0041 H   0  0  0  0  0  0  0  0  0  0  0  0
   -1.6766   -0.1341   -0.0041 H   0  0  0  0  0  0  0  0  0  0  0  0
    4.6857    1.3382   -1.4204 H   0  0  0  0  0  0  0  0  0  0  0  0
    1.7886    2.4244   -1.3236 H   0  0  0  0  0  0  0  0  0  0  0  0
   -0.3759    1.3072   -1.8235 H   0  0  0  0  0  0  0  0  0  0  0  0
    1.3835   -2.5533   -1.1968 H   0  0  0  0  0  0  0  0  0  0  0  0
    3.5255   -1.4909   -0.7015 H   0  0  0  0  0  0  0  0  0  0  0  0
   -0.7119   -2.3617   -2.3393 H   0  0  0  0  0  0  0  0  0  0  0  0
   -1.5730   -0.8402   -2.5388 H   0  0  0  0  0  0  0  0  0  0  0  0
   -1.2084   -2.2470    0.1542 H   0  0  0  0  0  0  0  0  0  0  0  0
   -2.6571   -2.0926   -0.8645 H   0  0  0  0  0  0  0  0  0  0  0  0
   -2.5811    1.5532   -0.5169 H   0  0  0  0  0  0  0  0  0  0  0  0
   -3.1053    0.1811   -1.6093 H   0  0  0  0  0  0  0  0  0  0  0  0
   -5.0765    0.1156   -0.5140 H   0  0  0  0  0  0  0  0  0  0  0  0
   -4.5651    1.4449    0.5638 H   0  0  0  0  0  0  0  0  0  0  0  0
   -5.0567   -0.5856    1.7995 H   0  0  0  0  0  0  0  0  0  0  0  0
   -3.1565   -0.6493    3.0792 H   0  0  0  0  0  0  0  0  0  0  0  0
   -3.3373    1.0003    2.3865 H   0  0  0  0  0  0  0  0  0  0  0  0
   -1.1749   -1.0428    1.7942 H   0  0  0  0  0  0  0  0  0  0  0  0
   -1.1891    0.7420    1.6255 H   0  0  0  0  0  0  0  0  0  0  0  0
  3  4  1  0
  4  5  2  0
  5  6  1  0
  6  7  2  0
  7  8  1  0
  8  9  2  0
  7 10  1  0
 10 11  1  0
 11 12  1  0
 12 13  1  0
 13 14  1  0
 14 15  1  0
 15 16  1  0
 16 17  1  0
  9  4  1  0
 17 12  1  0
  1 18  1  0
  2 19  1  0
  3 20  1  0
  5 21  1  0
  6 22  1  0
  8 23  1  0
  9 24  1  0
 10 25  1  0
 10 26  1  0
 11 27  1  0
 11 28  1  0
 13 29  1  0
 13 30  1  0
 14 31  1  0
 14 32  1  0
 15 33  1  0
 16 34  1  0
 16 35  1  0
 17 36  1  0
 17 37  1  0
M  END
>  <mol_id>  (33) 
Z4971220652

>  <drugclip_rank>  (33) 
33

>  <conformer>  (33) 
6

>  <align_rmsd>  (33) 
0.334

$$$$
Z9108933277
     RDKit          3D

 28 28  0  0  0  0  0  0  0  0999 V2000
   -4.0981   -2.0578    2.6458 C   0  0  0  0  0  0  0  0  0  0  0  0
   -3.0722   -1.7067    1.5675 C   0  0  1  0  0  0  0  0  0  0  0  0
   -3.6790   -0.7325    0.6635 N   0  0  0  0  0  0  0  0  0  0  0  0
   -1.7681   -1.1998    2.2134 C   0  0  0  0  0  0  0  0  0  0  0  0
   -0.5877   -1.0520    1.2487 C   0  0  0  0  0  0  0  0  0  0  0  0
   -0.6718    0.4787    0.2567 S   0  0  0  0  0  0  0  0  0  0  0  0
    0.7604    0.2110   -0.7849 C   0  0  0  0  0  0  0  0  0  0  0  0
    1.9584    0.8334   -0.4091 C   0  0  0  0  0  0  0  0  0  0  0  0
    3.1064    0.6688   -1.1794 C   0  0  0  0  0  0  0  0  0  0  0  0
    4.2435    1.2935   -0.7615 O   0  0  0  0  0  0  0  0  0  0  0  0
    3.0896   -0.1059   -2.3329 C   0  0  0  0  0  0  0  0  0  0  0  0
    1.9003   -0.7241   -2.7212 C   0  0  0  0  0  0  0  0  0  0  0  0
    0.7384   -0.5672   -1.9550 C   0  0  0  0  0  0  0  0  0  0  0  0
   -0.6922   -1.3642   -2.5135 Cl  0  0  0  0  0  0  0  0  0  0  0  0
   -5.0225   -2.4415    2.1995 H   0  0  0  0  0  0  0  0  0  0  0  0
   -3.7082   -2.8345    3.3126 H   0  0  0  0  0  0  0  0  0  0  0  0
   -4.3537   -1.1857    3.2584 H   0  0  0  0  0  0  0  0  0  0  0  0
   -2.8570   -2.6165    0.9948 H   0  0  0  0  0  0  0  0  0  0  0  0
   -2.9976   -0.4579   -0.0488 H   0  0  0  0  0  0  0  0  0  0  0  0
   -3.8843    0.1288    1.1705 H   0  0  0  0  0  0  0  0  0  0  0  0
   -1.9424   -0.2637    2.7602 H   0  0  0  0  0  0  0  0  0  0  0  0
   -1.4672   -1.9360    2.9714 H   0  0  0  0  0  0  0  0  0  0  0  0
    0.3397   -1.0115    1.8309 H   0  0  0  0  0  0  0  0  0  0  0  0
   -0.5268   -1.9257    0.5917 H   0  0  0  0  0  0  0  0  0  0  0  0
    2.0067    1.4519    0.4842 H   0  0  0  0  0  0  0  0  0  0  0  0
    4.9550    1.1199   -1.4000 H   0  0  0  0  0  0  0  0  0  0  0  0
    3.9809   -0.2376   -2.9387 H   0  0  0  0  0  0  0  0  0  0  0  0
    1.8815   -1.3271   -3.6260 H   0  0  0  0  0  0  0  0  0  0  0  0
  1  2  1  0
  2  3  1  0
  2  4  1  0
  4  5  1  0
  5  6  1  0
  6  7  1  0
  7  8  2  0
  8  9  1  0
  9 10  1  0
  9 11  2  0
 11 12  1  0
 12 13  2  0
 13 14  1  0
 13  7  1  0
  1 15  1  0
  1 16  1  0
  1 17  1  0
  2 18  1  6
  3 19  1  0
  3 20  1  0
  4 21  1  0
  4 22  1  0
  5 23  1  0
  5 24  1  0
  8 25  1  0
 10 26  1  0
 11 27  1  0
 12 28  1  0
M  END
>  <mol_id>  (34) 
Z9108933277

>  <drugclip_rank>  (34) 
34

>  <conformer>  (34) 
26

>  <align_rmsd>  (34) 
0.492

$$$$
Z220327456
     RDKit          3D

 27 27  0  0  0  0  0  0  0  0999 V2000
   -3.3529    1.4441   -1.3207 C   0  0  0  0  0  0  0  0  0  0  0  0
   -2.2927    0.4242   -0.9036 C   0  0  0  0  0  0  0  0  0  0  0  0
   -2.8404   -0.3812    0.1890 N   0  0  0  0  0  0  0  0  0  0  0  0
   -1.8804   -0.4382   -2.1115 C   0  0  0  0  0  0  0  0  0  0  0  0
   -0.7362   -1.4262   -1.8479 C   0  0  0  0  0  0  0  0  0  0  0  0
    0.5846   -0.7597   -1.5507 C   0  0  0  0  0  0  0  0  0  0  0  0
    1.1001   -0.7476   -0.2473 C   0  0  0  0  0  0  0  0  0  0  0  0
    2.3181   -0.1226    0.0251 C   0  0  0  0  0  0  0  0  0  0  0  0
    3.0235    0.4904   -1.0025 C   0  0  0  0  0  0  0  0  0  0  0  0
    4.2086    1.0886   -0.6914 O   0  0  0  0  0  0  0  0  0  0  0  0
    2.5311    0.4899   -2.3029 C   0  0  0  0  0  0  0  0  0  0  0  0
    1.3119   -0.1352   -2.5751 C   0  0  0  0  0  0  0  0  0  0  0  0
   -4.2551    0.9550   -1.7054 H   0  0  0  0  0  0  0  0  0  0  0  0
   -3.6450    2.0759   -0.4743 H   0  0  0  0  0  0  0  0  0  0  0  0
   -2.9668    2.1031   -2.1059 H   0  0  0  0  0  0  0  0  0  0  0  0
   -1.4264    0.9780   -0.5260 H   0  0  0  0  0  0  0  0  0  0  0  0
   -2.1313   -1.0195    0.5432 H   0  0  0  0  0  0  0  0  0  0  0  0
   -3.6083   -0.9578   -0.1517 H   0  0  0  0  0  0  0  0  0  0  0  0
   -1.6014    0.2229   -2.9424 H   0  0  0  0  0  0  0  0  0  0  0  0
   -2.7508   -1.0105   -2.4601 H   0  0  0  0  0  0  0  0  0  0  0  0
   -1.0024   -2.1191   -1.0411 H   0  0  0  0  0  0  0  0  0  0  0  0
   -0.6037   -2.0574   -2.7367 H   0  0  0  0  0  0  0  0  0  0  0  0
    0.5575   -1.2201    0.5677 H   0  0  0  0  0  0  0  0  0  0  0  0
    2.7138   -0.1131    1.0366 H   0  0  0  0  0  0  0  0  0  0  0  0
    4.5808    1.4748   -1.5007 H   0  0  0  0  0  0  0  0  0  0  0  0
    3.0758    0.9658   -3.1117 H   0  0  0  0  0  0  0  0  0  0  0  0
    0.9313   -0.1343   -3.5941 H   0  0  0  0  0  0  0  0  0  0  0  0
  1  2  1  0
  2  3  1  0
  2  4  1  0
  4  5  1  0
  5  6  1  0
  6  7  2  0
  7  8  1  0
  8  9  2  0
  9 10  1  0
  9 11  1  0
 11 12  2  0
 12  6  1  0
  1 13  1  0
  1 14  1  0
  1 15  1  0
  2 16  1  0
  3 17  1  0
  3 18  1  0
  4 19  1  0
  4 20  1  0
  5 21  1  0
  5 22  1  0
  7 23  1  0
  8 24  1  0
 10 25  1  0
 11 26  1  0
 12 27  1  0
M  END
>  <mol_id>  (35) 
Z220327456

>  <drugclip_rank>  (35) 
35

>  <conformer>  (35) 
7

>  <align_rmsd>  (35) 
0.225

$$$$
FCG3364299252
     RDKit          3D

 37 38  0  0  0  0  0  0  0  0999 V2000
   -4.5127    0.8336    2.1055 C   0  0  0  0  0  0  0  0  0  0  0  0
   -3.8789    0.8350    0.7932 N   0  0  0  0  0  0  0  0  0  0  0  0
   -3.1217   -0.4015    0.5754 C   0  0  0  0  0  0  0  0  0  0  0  0
   -2.4452   -0.4723   -0.8142 C   0  0  0  0  0  0  0  0  0  0  0  0
   -1.8712   -1.7849   -0.9335 O   0  0  0  0  0  0  0  0  0  0  0  0
   -1.3703    0.6341   -0.9941 C   0  0  0  0  0  0  0  0  0  0  0  0
   -0.9049    0.8600   -2.3826 N   0  0  0  0  0  0  0  0  0  0  0  0
    0.0456    1.9821   -2.4599 C   0  0  0  0  0  0  0  0  0  0  0  0
    1.3942    1.7240   -1.7641 C   0  0  0  0  0  0  0  0  0  0  0  0
   -0.2906   -0.3067   -3.0322 C   0  0  0  0  0  0  0  0  0  0  0  0
    1.0704   -0.6748   -2.4811 C   0  0  0  0  0  0  0  0  0  0  0  0
    1.9088    0.3098   -1.9134 C   0  0  0  0  0  0  0  0  0  0  0  0
    1.5240   -1.9981   -2.5985 C   0  0  0  0  0  0  0  0  0  0  0  0
    2.7893   -2.3547   -2.1378 C   0  0  0  0  0  0  0  0  0  0  0  0
    3.6127   -1.3915   -1.5620 C   0  0  0  0  0  0  0  0  0  0  0  0
    3.1737   -0.0740   -1.4485 C   0  0  0  0  0  0  0  0  0  0  0  0
    4.0458    0.7943   -0.8552 O   0  0  0  0  0  0  0  0  0  0  0  0
   -3.7672    0.7708    2.9048 H   0  0  0  0  0  0  0  0  0  0  0  0
   -5.0655    1.7680    2.2437 H   0  0  0  0  0  0  0  0  0  0  0  0
   -5.2208    0.0049    2.2091 H   0  0  0  0  0  0  0  0  0  0  0  0
   -4.6009    0.9155    0.0755 H   0  0  0  0  0  0  0  0  0  0  0  0
   -3.7855   -1.2699    0.6801 H   0  0  0  0  0  0  0  0  0  0  0  0
   -2.3491   -0.5110    1.3478 H   0  0  0  0  0  0  0  0  0  0  0  0
   -3.2117   -0.3808   -1.5928 H   0  0  0  0  0  0  0  0  0  0  0  0
   -1.0016   -1.7670   -0.4957 H   0  0  0  0  0  0  0  0  0  0  0  0
   -1.7981    1.5832   -0.6502 H   0  0  0  0  0  0  0  0  0  0  0  0
   -0.5267    0.4058   -0.3318 H   0  0  0  0  0  0  0  0  0  0  0  0
    0.2319    2.2019   -3.5204 H   0  0  0  0  0  0  0  0  0  0  0  0
   -0.4073    2.8969   -2.0574 H   0  0  0  0  0  0  0  0  0  0  0  0
    1.2882    1.9342   -0.6924 H   0  0  0  0  0  0  0  0  0  0  0  0
    2.1295    2.4271   -2.1731 H   0  0  0  0  0  0  0  0  0  0  0  0
   -0.1565   -0.0785   -4.0990 H   0  0  0  0  0  0  0  0  0  0  0  0
   -0.9686   -1.1645   -3.0219 H   0  0  0  0  0  0  0  0  0  0  0  0
    0.8892   -2.7569   -3.0521 H   0  0  0  0  0  0  0  0  0  0  0  0
    3.1348   -3.3809   -2.2290 H   0  0  0  0  0  0  0  0  0  0  0  0
    4.5992   -1.6659   -1.1983 H   0  0  0  0  0  0  0  0  0  0  0  0
    3.6429    1.6734   -0.8013 H   0  0  0  0  0  0  0  0  0  0  0  0
  1  2  1  0
  2  3  1  0
  3  4  1  0
  4  5  1  0
  4  6  1  0
  6  7  1  0
  7  8  1  0
  8  9  1  0
  7 10  1  0
 10 11  1  0
 11 12  2  0
 11 13  1  0
 13 14  2  0
 14 15  1  0
 15 16  2  0
 16 17  1  0
 12  9  1  0
 16 12  1  0
  1 18  1  0
  1 19  1  0
  1 20  1  0
  2 21  1  0
  3 22  1  0
  3 23  1  0
  4 24  1  0
  5 25  1  0
  6 26  1  0
  6 27  1  0
  8 28  1  0
  8 29  1  0
  9 30  1  0
  9 31  1  0
 10 32  1  0
 10 33  1  0
 13 34  1  0
 14 35  1  0
 15 36  1  0
 17 37  1  0
M  END
>  <mol_id>  (36) 
FCG3364299252

>  <drugclip_rank>  (36) 
36

>  <conformer>  (36) 
36

>  <align_rmsd>  (36) 
1.141

$$$$
Z1262658266
     RDKit          3D

 25 25  0  0  0  0  0  0  0  0999 V2000
   -2.4163   -0.4278    0.0413 N   0  0  0  0  0  0  0  0  0  0  0  0
   -2.1043   -0.3769   -1.3877 C   0  0  0  0  0  0  0  0  0  0  0  0
   -0.9020   -1.2537   -1.7695 C   0  0  0  0  0  0  0  0  0  0  0  0
    0.4388   -0.6191   -1.4774 C   0  0  0  0  0  0  0  0  0  0  0  0
    1.2265   -0.1128   -2.5187 C   0  0  0  0  0  0  0  0  0  0  0  0
    2.4674    0.4667   -2.2510 C   0  0  0  0  0  0  0  0  0  0  0  0
    2.9240    0.5455   -0.9365 C   0  0  0  0  0  0  0  0  0  0  0  0
    4.1389    1.1163   -0.6664 O   0  0  0  0  0  0  0  0  0  0  0  0
    2.1575    0.0627    0.1293 C   0  0  0  0  0  0  0  0  0  0  0  0
    0.9158   -0.5277   -0.1607 C   0  0  0  0  0  0  0  0  0  0  0  0
    2.6440    0.1013    1.5570 C   0  0  0  0  0  0  0  0  0  0  0  0
    3.1873    1.3667    1.9154 O   0  0  0  0  0  0  0  0  0  0  0  0
   -3.2186    0.1712    0.2324 H   0  0  0  0  0  0  0  0  0  0  0  0
   -2.6948   -1.3731    0.2996 H   0  0  0  0  0  0  0  0  0  0  0  0
   -1.9319    0.6636   -1.6845 H   0  0  0  0  0  0  0  0  0  0  0  0
   -2.9861   -0.7306   -1.9342 H   0  0  0  0  0  0  0  0  0  0  0  0
   -0.9572   -2.2314   -1.2732 H   0  0  0  0  0  0  0  0  0  0  0  0
   -0.9642   -1.4698   -2.8442 H   0  0  0  0  0  0  0  0  0  0  0  0
    0.8790   -0.1670   -3.5478 H   0  0  0  0  0  0  0  0  0  0  0  0
    3.0578    0.8510   -3.0768 H   0  0  0  0  0  0  0  0  0  0  0  0
    4.5597    1.3531   -1.5108 H   0  0  0  0  0  0  0  0  0  0  0  0
    0.3029   -0.9149    0.6524 H   0  0  0  0  0  0  0  0  0  0  0  0
    3.4171   -0.6616    1.6987 H   0  0  0  0  0  0  0  0  0  0  0  0
    1.8303   -0.1108    2.2578 H   0  0  0  0  0  0  0  0  0  0  0  0
    3.6898    1.6632    1.1318 H   0  0  0  0  0  0  0  0  0  0  0  0
  1  2  1  0
  2  3  1  0
  3  4  1  0
  4  5  2  0
  5  6  1  0
  6  7  2  0
  7  8  1  0
  7  9  1  0
  9 10  2  0
  9 11  1  0
 11 12  1  0
 10  4  1  0
  1 13  1  0
  1 14  1  0
  2 15  1  0
  2 16  1  0
  3 17  1  0
  3 18  1  0
  5 19  1  0
  6 20  1  0
  8 21  1  0
 10 22  1  0
 11 23  1  0
 11 24  1  0
 12 25  1  0
M  END
>  <mol_id>  (37) 
Z1262658266

>  <drugclip_rank>  (37) 
37

>  <conformer>  (37) 
10

>  <align_rmsd>  (37) 
0.284

$$$$
Z2050038784
     RDKit          3D

 41 40  0  0  0  0  0  0  0  0999 V2000
    3.0432   -0.3750   -0.4484 O   0  0  0  0  0  0  0  0  0  0  0  0
    2.1423   -0.0730   -1.2127 C   0  0  0  0  0  0  0  0  0  0  0  0
    2.3104    0.9108   -2.1264 O   0  0  0  0  0  0  0  0  0  0  0  0
    0.7470   -0.6838   -1.2653 C   0  0  2  0  0  0  0  0  0  0  0  0
    0.0015   -0.2708   -2.4193 O   0  0  0  0  0  0  0  0  0  0  0  0
    0.0022   -0.3032    0.0140 C   0  0  1  0  0  0  0  0  0  0  0  0
   -0.6675    0.9522   -0.1600 O   0  0  0  0  0  0  0  0  0  0  0  0
   -0.9749   -1.4131    0.3769 C   0  0  0  0  0  0  0  0  0  0  0  0
   -2.1936   -1.3369    0.3590 O   0  0  0  0  0  0  0  0  0  0  0  0
   -0.3683   -2.5542    0.7607 O   0  0  0  0  0  0  0  0  0  0  0  0
   -0.6288   -0.7942    1.6062 C   0  0  0  0  0  0  0  0  0  0  0  0
   -1.2312    0.0356    0.4677 C   0  0  2  0  0  0  0  0  0  0  0  0
   -2.6951    0.0586    0.6897 N   0  0  0  0  0  0  0  0  0  0  0  0
   -0.8981   -0.5324   -0.9517 C   0  0  2  0  0  0  0  0  0  0  0  0
   -1.4511   -1.8584   -1.0375 O   0  0  0  0  0  0  0  0  0  0  0  0
    0.5584   -0.5453   -1.3897 C   0  0  0  0  0  0  0  0  0  0  0  0
    0.9595   -1.3924   -2.4411 C   0  0  0  0  0  0  0  0  0  0  0  0
    2.2811   -1.4101   -2.8960 C   0  0  0  0  0  0  0  0  0  0  0  0
    3.2280   -0.5673   -2.3212 C   0  0  0  0  0  0  0  0  0  0  0  0
    2.8370    0.2933   -1.3033 C   0  0  0  0  0  0  0  0  0  0  0  0
    3.7234    1.1498   -0.7191 O   0  0  0  0  0  0  0  0  0  0  0  0
    1.5210    0.3172   -0.8446 C   0  0  0  0  0  0  0  0  0  0  0  0
    3.2307    1.2203   -1.9809 H   0  0  0  0  0  0  0  0  0  0  0  0
    0.8947   -1.7650   -1.3608 H   0  0  0  0  0  0  0  0  0  0  0  0
    0.3365    0.6253   -2.6326 H   0  0  0  0  0  0  0  0  0  0  0  0
    0.6755   -0.1859    0.8708 H   0  0  0  0  0  0  0  0  0  0  0  0
   -1.3967    0.7736   -0.7880 H   0  0  0  0  0  0  0  0  0  0  0  0
   -1.1104   -3.1567    0.9843 H   0  0  0  0  0  0  0  0  0  0  0  0
    0.4614   -0.8448    1.5349 H   0  0  0  0  0  0  0  0  0  0  0  0
   -0.8680   -0.3468    2.5781 H   0  0  0  0  0  0  0  0  0  0  0  0
   -1.0109   -1.8211    1.6130 H   0  0  0  0  0  0  0  0  0  0  0  0
   -0.8735    1.0673    0.5511 H   0  0  0  0  0  0  0  0  0  0  0  0
   -3.0445   -0.8824    0.4815 H   0  0  0  0  0  0  0  0  0  0  0  0
   -3.1268    0.6472   -0.0231 H   0  0  0  0  0  0  0  0  0  0  0  0
   -1.4373    0.0739   -1.6914 H   0  0  0  0  0  0  0  0  0  0  0  0
   -0.7964   -2.4568   -0.6365 H   0  0  0  0  0  0  0  0  0  0  0  0
    0.2326   -2.0454   -2.9235 H   0  0  0  0  0  0  0  0  0  0  0  0
    2.5655   -2.0782   -3.7051 H   0  0  0  0  0  0  0  0  0  0  0  0
    4.2506   -0.5881   -2.6832 H   0  0  0  0  0  0  0  0  0  0  0  0
    4.5913    1.0319   -1.1391 H   0  0  0  0  0  0  0  0  0  0  0  0
    1.2723    1.0252   -0.0591 H   0  0  0  0  0  0  0  0  0  0  0  0
  1  2  2  0
  2  3  1  0
  2  4  1  0
  4  5  1  0
  4  6  1  0
  6  7  1  0
  6  8  1  0
  8  9  2  0
  8 10  1  0
 11 12  1  0
 12 13  1  0
 12 14  1  0
 14 15  1  0
 14 16  1  0
 16 17  2  0
 17 18  1  0
 18 19  2  0
 19 20  1  0
 20 21  1  0
 20 22  2  0
 22 16  1  0
  3 23  1  0
  4 24  1  6
  5 25  1  0
  6 26  1  1
  7 27  1  0
 10 28  1  0
 11 29  1  0
 11 30  1  0
 11 31  1  0
 12 32  1  6
 13 33  1  0
 13 34  1  0
 14 35  1  6
 15 36  1  0
 17 37  1  0
 18 38  1  0
 19 39  1  0
 21 40  1  0
 22 41  1  0
M  END
>  <mol_id>  (38) 
Z2050038784

>  <drugclip_rank>  (38) 
38

>  <conformer>  (38) 
19

>  <align_rmsd>  (38) 
0.808

$$$$
Z1741977143
     RDKit          3D

 27 26  0  0  0  0  0  0  0  0999 V2000
    0.2721    0.1452   -0.7013 Cl  0  0  0  0  0  0  0  0  0  0  0  0
   -3.8753    0.3046   -1.2355 C   0  0  0  0  0  0  0  0  0  0  0  0
   -3.4000   -0.5060   -0.1264 N   0  0  0  0  0  0  0  0  0  0  0  0
   -2.0037   -0.1578    0.1825 C   0  0  0  0  0  0  0  0  0  0  0  0
   -1.1962   -0.6311   -0.9896 C   0  0  0  0  0  0  0  0  0  0  0  0
   -1.3242   -2.0023   -1.1708 O   0  0  0  0  0  0  0  0  0  0  0  0
    0.2296   -0.1881   -0.9028 C   0  0  0  0  0  0  0  0  0  0  0  0
    0.6002    0.9456   -1.6291 C   0  0  0  0  0  0  0  0  0  0  0  0
    1.9017    1.4024   -1.5879 C   0  0  0  0  0  0  0  0  0  0  0  0
    2.8018    0.7039   -0.8133 C   0  0  0  0  0  0  0  0  0  0  0  0
    4.1385    1.1395   -0.7440 O   0  0  0  0  0  0  0  0  0  0  0  0
    2.4363   -0.4292   -0.0850 C   0  0  0  0  0  0  0  0  0  0  0  0
    1.1309   -0.8883   -0.1262 C   0  0  0  0  0  0  0  0  0  0  0  0
   -1.1090    0.0746   -0.7065 H   0  0  0  0  0  0  0  0  0  0  0  0
   -3.7924   -0.3242   -2.1597 H   0  0  0  0  0  0  0  0  0  0  0  0
   -3.1591    1.1405   -1.3898 H   0  0  0  0  0  0  0  0  0  0  0  0
   -4.9140    0.6303   -1.1239 H   0  0  0  0  0  0  0  0  0  0  0  0
   -3.9960   -0.3946    0.7250 H   0  0  0  0  0  0  0  0  0  0  0  0
   -1.7124   -0.5789    1.1518 H   0  0  0  0  0  0  0  0  0  0  0  0
   -1.9335    0.9576    0.2401 H   0  0  0  0  0  0  0  0  0  0  0  0
   -1.6873   -0.1762   -1.8989 H   0  0  0  0  0  0  0  0  0  0  0  0
   -1.4038   -2.5102   -0.3411 H   0  0  0  0  0  0  0  0  0  0  0  0
   -0.1263    1.4685   -2.2212 H   0  0  0  0  0  0  0  0  0  0  0  0
    2.1734    2.2889   -2.1615 H   0  0  0  0  0  0  0  0  0  0  0  0
    4.7290    1.0172   -1.5471 H   0  0  0  0  0  0  0  0  0  0  0  0
    3.2071   -0.9214    0.4962 H   0  0  0  0  0  0  0  0  0  0  0  0
    0.8326   -1.7610    0.4284 H   0  0  0  0  0  0  0  0  0  0  0  0
  2  3  1  0
  3  4  1  0
  4  5  1  0
  5  6  1  0
  5  7  1  0
  7  8  2  0
  8  9  1  0
  9 10  2  0
 10 11  1  0
 10 12  1  0
 12 13  2  0
 13  7  1  0
  1 14  1  0
  2 15  1  0
  2 16  1  0
  2 17  1  0
  3 18  1  0
  4 19  1  0
  4 20  1  0
  5 21  1  0
  6 22  1  0
  8 23  1  0
  9 24  1  0
 11 25  1  0
 12 26  1  0
 13 27  1  0
M  END
>  <mol_id>  (39) 
Z1741977143

>  <drugclip_rank>  (39) 
39

>  <conformer>  (39) 
4

>  <align_rmsd>  (39) 
0.59

$$$$
Z57102382
     RDKit          3D

 24 24  0  0  0  0  0  0  0  0999 V2000
   -2.7900   -2.5426   -1.3146 C   0  0  0  0  0  0  0  0  0  0  0  0
   -1.6671   -1.6340   -0.8105 C   0  0  0  0  0  0  0  0  0  0  0  0
   -2.2046   -0.7546    0.2363 N   0  0  0  0  0  0  0  0  0  0  0  0
   -1.0631   -0.8268   -1.9804 C   0  0  0  0  0  0  0  0  0  0  0  0
    0.3016   -0.2491   -1.6788 C   0  0  0  0  0  0  0  0  0  0  0  0
    0.4261    0.9617   -0.9840 C   0  0  0  0  0  0  0  0  0  0  0  0
    1.6866    1.4918   -0.7044 C   0  0  0  0  0  0  0  0  0  0  0  0
    2.8258    0.8118   -1.1153 C   0  0  0  0  0  0  0  0  0  0  0  0
    4.0376    1.3645   -0.8222 O   0  0  0  0  0  0  0  0  0  0  0  0
    2.7264   -0.3945   -1.8006 C   0  0  0  0  0  0  0  0  0  0  0  0
    1.4642   -0.9246   -2.0797 C   0  0  0  0  0  0  0  0  0  0  0  0
   -2.4094   -3.2500   -2.0593 H   0  0  0  0  0  0  0  0  0  0  0  0
   -3.5966   -1.9649   -1.7798 H   0  0  0  0  0  0  0  0  0  0  0  0
   -3.2210   -3.1285   -0.4951 H   0  0  0  0  0  0  0  0  0  0  0  0
   -0.8903   -2.2644   -0.3611 H   0  0  0  0  0  0  0  0  0  0  0  0
   -2.5831   -1.3191    0.9958 H   0  0  0  0  0  0  0  0  0  0  0  0
   -2.9842   -0.2116   -0.1318 H   0  0  0  0  0  0  0  0  0  0  0  0
   -0.9727   -1.4729   -2.8642 H   0  0  0  0  0  0  0  0  0  0  0  0
   -1.7411   -0.0183   -2.2862 H   0  0  0  0  0  0  0  0  0  0  0  0
   -0.4611    1.4928   -0.6469 H   0  0  0  0  0  0  0  0  0  0  0  0
    1.7767    2.4288   -0.1633 H   0  0  0  0  0  0  0  0  0  0  0  0
    4.7324    0.7752   -1.1574 H   0  0  0  0  0  0  0  0  0  0  0  0
    3.6112   -0.9337   -2.1224 H   0  0  0  0  0  0  0  0  0  0  0  0
    1.3929   -1.8694   -2.6134 H   0  0  0  0  0  0  0  0  0  0  0  0
  1  2  1  0
  2  3  1  0
  2  4  1  0
  4  5  1  0
  5  6  2  0
  6  7  1  0
  7  8  2  0
  8  9  1  0
  8 10  1  0
 10 11  2  0
 11  5  1  0
  1 12  1  0
  1 13  1  0
  1 14  1  0
  2 15  1  0
  3 16  1  0
  3 17  1  0
  4 18  1  0
  4 19  1  0
  6 20  1  0
  7 21  1  0
  9 22  1  0
 10 23  1  0
 11 24  1  0
M  END
>  <mol_id>  (40) 
Z57102382

>  <drugclip_rank>  (40) 
40

>  <conformer>  (40) 
5

>  <align_rmsd>  (40) 
0.58

$$$$
OSSM_304587
     RDKit          3D

 25 25  0  0  0  0  0  0  0  0999 V2000
   -1.8158    0.8300   -0.4185 C   0  0  0  0  0  0  0  0  0  0  0  0
   -2.0405   -0.2757    0.5098 N   0  0  0  0  0  0  0  0  0  0  0  0
   -0.7661   -0.8310    1.0237 C   0  0  0  0  0  0  0  0  0  0  0  0
   -0.0235   -1.7574    0.0185 C   0  0  0  0  0  0  0  0  0  0  0  0
   -1.0056   -2.5083   -0.7105 O   0  0  0  0  0  0  0  0  0  0  0  0
    0.9464   -1.0575   -0.9156 C   0  0  0  0  0  0  0  0  0  0  0  0
    1.9972   -0.2883   -0.3888 C   0  0  0  0  0  0  0  0  0  0  0  0
    2.9009    0.3496   -1.2343 C   0  0  0  0  0  0  0  0  0  0  0  0
    3.8929    1.0876   -0.6583 O   0  0  0  0  0  0  0  0  0  0  0  0
    2.7939    0.2331   -2.6148 C   0  0  0  0  0  0  0  0  0  0  0  0
    1.7687   -0.5412   -3.1536 C   0  0  0  0  0  0  0  0  0  0  0  0
    0.8569   -1.1847   -2.3116 C   0  0  0  0  0  0  0  0  0  0  0  0
   -1.1761    1.6037    0.0180 H   0  0  0  0  0  0  0  0  0  0  0  0
   -1.3835    0.4861   -1.3606 H   0  0  0  0  0  0  0  0  0  0  0  0
   -2.7779    1.2923   -0.6622 H   0  0  0  0  0  0  0  0  0  0  0  0
   -2.5646    0.0903    1.3073 H   0  0  0  0  0  0  0  0  0  0  0  0
   -1.0572   -1.4675    1.8695 H   0  0  0  0  0  0  0  0  0  0  0  0
   -0.1249   -0.0473    1.4414 H   0  0  0  0  0  0  0  0  0  0  0  0
    0.5594   -2.4924    0.5872 H   0  0  0  0  0  0  0  0  0  0  0  0
   -1.8321   -1.9928   -0.5958 H   0  0  0  0  0  0  0  0  0  0  0  0
    2.1278   -0.1854    0.6853 H   0  0  0  0  0  0  0  0  0  0  0  0
    4.4582    1.4446   -1.3630 H   0  0  0  0  0  0  0  0  0  0  0  0
    3.4948    0.7258   -3.2805 H   0  0  0  0  0  0  0  0  0  0  0  0
    1.6768   -0.6518   -4.2310 H   0  0  0  0  0  0  0  0  0  0  0  0
    0.0704   -1.7922   -2.7562 H   0  0  0  0  0  0  0  0  0  0  0  0
  1  2  1  0
  2  3  1  0
  3  4  1  0
  4  5  1  0
  4  6  1  0
  6  7  2  0
  7  8  1  0
  8  9  1  0
  8 10  2  0
 10 11  1  0
 11 12  2  0
 12  6  1  0
  1 13  1  0
  1 14  1  0
  1 15  1  0
  2 16  1  0
  3 17  1  0
  3 18  1  0
  4 19  1  0
  5 20  1  0
  7 21  1  0
  9 22  1  0
 10 23  1  0
 11 24  1  0
 12 25  1  0
M  END
>  <mol_id>  (41) 
OSSM_304587

>  <drugclip_rank>  (41) 
41

>  <conformer>  (41) 
11

>  <align_rmsd>  (41) 
0.497

$$$$
FCG928091479
     RDKit          3D

 35 36  0  0  0  0  0  0  0  0999 V2000
   -3.6696    0.8314   -0.6992 C   0  0  0  0  0  0  0  0  0  0  0  0
   -3.4722   -0.5686   -0.1085 C   0  0  0  0  0  0  0  0  0  0  0  0
   -4.8563   -1.1105    0.3067 C   0  0  0  0  0  0  0  0  0  0  0  0
   -2.6475   -0.5001    1.1185 N   0  0  0  0  0  0  0  0  0  0  0  0
   -2.8271   -1.5541   -1.1485 C   0  0  0  0  0  0  0  0  0  0  0  0
   -3.4982   -2.5091   -1.5635 O   0  0  0  0  0  0  0  0  0  0  0  0
   -1.5249   -1.3700   -1.6043 N   0  0  0  0  0  0  0  0  0  0  0  0
   -1.0301   -2.2482   -2.6640 C   0  0  0  0  0  0  0  0  0  0  0  0
    0.3499   -2.8012   -2.3191 C   0  0  0  0  0  0  0  0  0  0  0  0
   -0.6738   -0.2159   -1.3109 C   0  0  0  0  0  0  0  0  0  0  0  0
    0.8111   -0.4750   -1.4628 C   0  0  0  0  0  0  0  0  0  0  0  0
    1.3060   -1.6941   -1.9601 C   0  0  0  0  0  0  0  0  0  0  0  0
    1.7177    0.5383   -1.1162 C   0  0  0  0  0  0  0  0  0  0  0  0
    3.0860    0.3294   -1.2469 C   0  0  0  0  0  0  0  0  0  0  0  0
    3.9196    1.3489   -0.8929 O   0  0  0  0  0  0  0  0  0  0  0  0
    3.5812   -0.8800   -1.7197 C   0  0  0  0  0  0  0  0  0  0  0  0
    2.6897   -1.8938   -2.0722 C   0  0  0  0  0  0  0  0  0  0  0  0
   -4.2956    1.4541   -0.0491 H   0  0  0  0  0  0  0  0  0  0  0  0
   -2.7309    1.3729   -0.8384 H   0  0  0  0  0  0  0  0  0  0  0  0
   -4.1571    0.7740   -1.6793 H   0  0  0  0  0  0  0  0  0  0  0  0
   -5.5318   -1.1685   -0.5552 H   0  0  0  0  0  0  0  0  0  0  0  0
   -5.3345   -0.4682    1.0559 H   0  0  0  0  0  0  0  0  0  0  0  0
   -4.7825   -2.1188    0.7319 H   0  0  0  0  0  0  0  0  0  0  0  0
   -2.5450   -1.4447    1.4940 H   0  0  0  0  0  0  0  0  0  0  0  0
   -3.1443    0.0311    1.8327 H   0  0  0  0  0  0  0  0  0  0  0  0
   -0.9929   -1.6533   -3.5858 H   0  0  0  0  0  0  0  0  0  0  0  0
   -1.7101   -3.0849   -2.8521 H   0  0  0  0  0  0  0  0  0  0  0  0
    0.2761   -3.4829   -1.4630 H   0  0  0  0  0  0  0  0  0  0  0  0
    0.7311   -3.3694   -3.1754 H   0  0  0  0  0  0  0  0  0  0  0  0
   -0.8501    0.1519   -0.3017 H   0  0  0  0  0  0  0  0  0  0  0  0
   -0.9557    0.5675   -2.0244 H   0  0  0  0  0  0  0  0  0  0  0  0
    1.3602    1.4926   -0.7370 H   0  0  0  0  0  0  0  0  0  0  0  0
    4.8365    1.0563   -1.0224 H   0  0  0  0  0  0  0  0  0  0  0  0
    4.6479   -1.0529   -1.8185 H   0  0  0  0  0  0  0  0  0  0  0  0
    3.0781   -2.8424   -2.4362 H   0  0  0  0  0  0  0  0  0  0  0  0
  1  2  1  0
  2  3  1  0
  2  4  1  0
  2  5  1  0
  5  6  2  0
  5  7  1  0
  7  8  1  0
  8  9  1  0
  7 10  1  0
 10 11  1  0
 11 12  2  0
 11 13  1  0
 13 14  2  0
 14 15  1  0
 14 16  1  0
 16 17  2  0
 12  9  1  0
 17 12  1  0
  1 18  1  0
  1 19  1  0
  1 20  1  0
  3 21  1  0
  3 22  1  0
  3 23  1  0
  4 24  1  0
  4 25  1  0
  8 26  1  0
  8 27  1  0
  9 28  1  0
  9 29  1  0
 10 30  1  0
 10 31  1  0
 13 32  1  0
 15 33  1  0
 16 34  1  0
 17 35  1  0
M  END
>  <mol_id>  (42) 
FCG928091479

>  <drugclip_rank>  (42) 
42

>  <conformer>  (42) 
5

>  <align_rmsd>  (42) 
0.731

$$$$
Z4437707719
     RDKit          3D

 30 29  0  0  0  0  0  0  0  0999 V2000
   -0.4338   -0.3313   -0.6133 Cl  0  0  0  0  0  0  0  0  0  0  0  0
   -2.9173   -0.8540    1.2181 C   0  0  0  0  0  0  0  0  0  0  0  0
   -2.1183   -0.4177    0.0861 N   0  0  0  0  0  0  0  0  0  0  0  0
   -1.7224   -1.6066   -0.6313 C   0  0  0  0  0  0  0  0  0  0  0  0
   -0.8853   -1.3313   -1.8375 C   0  0  0  0  0  0  0  0  0  0  0  0
    0.3793   -0.6333   -1.5463 C   0  0  0  0  0  0  0  0  0  0  0  0
    1.4898   -1.4169   -1.2761 C   0  0  0  0  0  0  0  0  0  0  0  0
    2.6905   -0.8116   -0.9990 C   0  0  0  0  0  0  0  0  0  0  0  0
    2.7895    0.5723   -0.9901 C   0  0  0  0  0  0  0  0  0  0  0  0
    4.0207    1.1526   -0.7056 O   0  0  0  0  0  0  0  0  0  0  0  0
    1.6777    1.3755   -1.2609 C   0  0  0  0  0  0  0  0  0  0  0  0
    0.4888    0.7548   -1.5350 C   0  0  0  0  0  0  0  0  0  0  0  0
    1.8704    2.7290   -1.2295 O   0  0  0  0  0  0  0  0  0  0  0  0
    0.7786    3.5911   -1.4962 C   0  0  0  0  0  0  0  0  0  0  0  0
    0.5000    0.5309   -1.1625 H   0  0  0  0  0  0  0  0  0  0  0  0
   -3.9475   -0.4636    1.1110 H   0  0  0  0  0  0  0  0  0  0  0  0
   -2.9971   -1.9616    1.2977 H   0  0  0  0  0  0  0  0  0  0  0  0
   -2.4504   -0.5404    2.1887 H   0  0  0  0  0  0  0  0  0  0  0  0
   -2.6794    0.1944   -0.5455 H   0  0  0  0  0  0  0  0  0  0  0  0
   -1.3043   -2.3359    0.0638 H   0  0  0  0  0  0  0  0  0  0  0  0
   -2.6844   -2.0447   -1.0237 H   0  0  0  0  0  0  0  0  0  0  0  0
   -0.6731   -2.3018   -2.3203 H   0  0  0  0  0  0  0  0  0  0  0  0
   -1.4571   -0.7332   -2.5540 H   0  0  0  0  0  0  0  0  0  0  0  0
    1.4580   -2.5000   -1.2722 H   0  0  0  0  0  0  0  0  0  0  0  0
    3.5730   -1.4320   -0.7843 H   0  0  0  0  0  0  0  0  0  0  0  0
    4.7253    1.2898   -1.4370 H   0  0  0  0  0  0  0  0  0  0  0  0
   -0.3841    1.3613   -1.7473 H   0  0  0  0  0  0  0  0  0  0  0  0
    1.2309    4.5846   -1.6972 H   0  0  0  0  0  0  0  0  0  0  0  0
    0.0716    3.6129   -0.6431 H   0  0  0  0  0  0  0  0  0  0  0  0
    0.2115    3.2089   -2.3808 H   0  0  0  0  0  0  0  0  0  0  0  0
  2  3  1  0
  3  4  1  0
  4  5  1  0
  5  6  1  0
  6  7  2  0
  7  8  1  0
  8  9  2  0
  9 10  1  0
  9 11  1  0
 11 12  2  0
 11 13  1  0
 13 14  1  0
 12  6  1  0
  1 15  1  0
  2 16  1  0
  2 17  1  0
  2 18  1  0
  3 19  1  0
  4 20  1  0
  4 21  1  0
  5 22  1  0
  5 23  1  0
  7 24  1  0
  8 25  1  0
 10 26  1  0
 12 27  1  0
 14 28  1  0
 14 29  1  0
 14 30  1  0
M  END
>  <mol_id>  (43) 
Z4437707719

>  <drugclip_rank>  (43) 
43

>  <conformer>  (43) 
13

>  <align_rmsd>  (43) 
0.311

$$$$
Z3215375352
     RDKit          3D

 32 31  0  0  0  0  0  0  0  0999 V2000
   -0.0892    0.0524   -1.1619 Cl  0  0  0  0  0  0  0  0  0  0  0  0
   -3.8131   -1.1912   -0.0286 C   0  0  0  0  0  0  0  0  0  0  0  0
   -2.6149   -0.4410    0.1731 N   0  0  0  0  0  0  0  0  0  0  0  0
   -2.3003    0.4355   -0.9354 C   0  0  0  0  0  0  0  0  0  0  0  0
   -3.3638    1.4598   -1.2211 C   0  0  0  0  0  0  0  0  0  0  0  0
   -1.9853   -0.4104   -2.1532 C   0  0  0  0  0  0  0  0  0  0  0  0
   -0.8181   -1.3098   -1.8985 C   0  0  0  0  0  0  0  0  0  0  0  0
    0.4453   -0.6848   -1.5599 C   0  0  0  0  0  0  0  0  0  0  0  0
    1.3298   -0.3441   -2.5573 C   0  0  0  0  0  0  0  0  0  0  0  0
    2.5476    0.2522   -2.3082 C   0  0  0  0  0  0  0  0  0  0  0  0
    2.9201    0.5306   -1.0078 C   0  0  0  0  0  0  0  0  0  0  0  0
    4.1338    1.1290   -0.7084 O   0  0  0  0  0  0  0  0  0  0  0  0
    2.0554    0.2023    0.0274 C   0  0  0  0  0  0  0  0  0  0  0  0
    0.8355   -0.3974   -0.2512 C   0  0  0  0  0  0  0  0  0  0  0  0
   -1.4321   -0.2306   -1.0704 H   0  0  0  0  0  0  0  0  0  0  0  0
   -3.5676   -2.2766   -0.1483 H   0  0  0  0  0  0  0  0  0  0  0  0
   -4.3097   -0.8948   -0.9852 H   0  0  0  0  0  0  0  0  0  0  0  0
   -4.5498   -1.0557    0.7917 H   0  0  0  0  0  0  0  0  0  0  0  0
   -2.4776   -0.0302    1.1003 H   0  0  0  0  0  0  0  0  0  0  0  0
   -1.3814    1.0116   -0.6737 H   0  0  0  0  0  0  0  0  0  0  0  0
   -3.0430    2.4983   -1.0024 H   0  0  0  0  0  0  0  0  0  0  0  0
   -3.5233    1.4488   -2.3347 H   0  0  0  0  0  0  0  0  0  0  0  0
   -4.3410    1.2151   -0.7622 H   0  0  0  0  0  0  0  0  0  0  0  0
   -2.8423   -1.0770   -2.3905 H   0  0  0  0  0  0  0  0  0  0  0  0
   -1.8905    0.2712   -2.9998 H   0  0  0  0  0  0  0  0  0  0  0  0
   -1.1157   -1.9403   -1.0086 H   0  0  0  0  0  0  0  0  0  0  0  0
   -0.6662   -2.0532   -2.7062 H   0  0  0  0  0  0  0  0  0  0  0  0
    1.0644   -0.5491   -3.5675 H   0  0  0  0  0  0  0  0  0  0  0  0
    3.1927    0.4928   -3.1354 H   0  0  0  0  0  0  0  0  0  0  0  0
    4.7397    1.3969   -1.4944 H   0  0  0  0  0  0  0  0  0  0  0  0
    2.2842    0.3907    1.0482 H   0  0  0  0  0  0  0  0  0  0  0  0
    0.1696   -0.6488    0.5645 H   0  0  0  0  0  0  0  0  0  0  0  0
  2  3  1  0
  3  4  1  0
  4  5  1  0
  4  6  1  0
  6  7  1  0
  7  8  1  0
  8  9  2  0
  9 10  1  0
 10 11  2  0
 11 12  1  0
 11 13  1  0
 13 14  2  0
 14  8  1  0
  1 15  1  0
  2 16  1  0
  2 17  1  0
  2 18  1  0
  3 19  1  0
  4 20  1  0
  5 21  1  0
  5 22  1  0
  5 23  1  0
  6 24  1  0
  6 25  1  0
  7 26  1  0
  7 27  1  0
  9 28  1  0
 10 29  1  0
 12 30  1  0
 13 31  1  0
 14 32  1  0
M  END
>  <mol_id>  (44) 
Z3215375352

>  <drugclip_rank>  (44) 
44

>  <conformer>  (44) 
16

>  <align_rmsd>  (44) 
0.164

$$$$
STL301903
     RDKit          3D

 25 25  0  0  0  0  0  0  0  0999 V2000
   -1.8158    0.8300   -0.4185 C   0  0  0  0  0  0  0  0  0  0  0  0
   -2.0405   -0.2757    0.5098 N   0  0  0  0  0  0  0  0  0  0  0  0
   -0.7661   -0.8310    1.0237 C   0  0  0  0  0  0  0  0  0  0  0  0
   -0.0235   -1.7574    0.0185 C   0  0  0  0  0  0  0  0  0  0  0  0
   -1.0056   -2.5083   -0.7105 O   0  0  0  0  0  0  0  0  0  0  0  0
    0.9464   -1.0575   -0.9156 C   0  0  0  0  0  0  0  0  0  0  0  0
    1.9972   -0.2883   -0.3888 C   0  0  0  0  0  0  0  0  0  0  0  0
    2.9009    0.3496   -1.2343 C   0  0  0  0  0  0  0  0  0  0  0  0
    3.8929    1.0876   -0.6583 O   0  0  0  0  0  0  0  0  0  0  0  0
    2.7939    0.2331   -2.6148 C   0  0  0  0  0  0  0  0  0  0  0  0
    1.7687   -0.5412   -3.1536 C   0  0  0  0  0  0  0  0  0  0  0  0
    0.8569   -1.1847   -2.3116 C   0  0  0  0  0  0  0  0  0  0  0  0
   -1.1761    1.6037    0.0180 H   0  0  0  0  0  0  0  0  0  0  0  0
   -1.3835    0.4861   -1.3606 H   0  0  0  0  0  0  0  0  0  0  0  0
   -2.7779    1.2923   -0.6622 H   0  0  0  0  0  0  0  0  0  0  0  0
   -2.5646    0.0903    1.3073 H   0  0  0  0  0  0  0  0  0  0  0  0
   -1.0572   -1.4675    1.8695 H   0  0  0  0  0  0  0  0  0  0  0  0
   -0.1249   -0.0473    1.4414 H   0  0  0  0  0  0  0  0  0  0  0  0
    0.5594   -2.4924    0.5872 H   0  0  0  0  0  0  0  0  0  0  0  0
   -1.8321   -1.9928   -0.5958 H   0  0  0  0  0  0  0  0  0  0  0  0
    2.1278   -0.1854    0.6853 H   0  0  0  0  0  0  0  0  0  0  0  0
    4.4582    1.4446   -1.3630 H   0  0  0  0  0  0  0  0  0  0  0  0
    3.4948    0.7258   -3.2805 H   0  0  0  0  0  0  0  0  0  0  0  0
    1.6768   -0.6518   -4.2310 H   0  0  0  0  0  0  0  0  0  0  0  0
    0.0704   -1.7922   -2.7562 H   0  0  0  0  0  0  0  0  0  0  0  0
  1  2  1  0
  2  3  1  0
  3  4  1  0
  4  5  1  0
  4  6  1  0
  6  7  2  0
  7  8  1  0
  8  9  1  0
  8 10  2  0
 10 11  1  0
 11 12  2  0
 12  6  1  0
  1 13  1  0
  1 14  1  0
  1 15  1  0
  2 16  1  0
  3 17  1  0
  3 18  1  0
  4 19  1  0
  5 20  1  0
  7 21  1  0
  9 22  1  0
 10 23  1  0
 11 24  1  0
 12 25  1  0
M  END
>  <mol_id>  (45) 
STL301903

>  <drugclip_rank>  (45) 
45

>  <conformer>  (45) 
11

>  <align_rmsd>  (45) 
0.497

$$$$
Z2574937385
     RDKit          3D

 28 27  0  0  0  0  0  0  0  0999 V2000
    0.9286    0.7187   -0.0761 Cl  0  0  0  0  0  0  0  0  0  0  0  0
    1.8325    2.7496    1.8642 C   0  0  0  0  0  0  0  0  0  0  0  0
    2.6035    2.0598    0.8990 O   0  0  0  0  0  0  0  0  0  0  0  0
    2.0817    1.1161    0.0547 C   0  0  0  0  0  0  0  0  0  0  0  0
    0.7572    0.7444    0.0601 C   0  0  0  0  0  0  0  0  0  0  0  0
    0.2400   -0.2155   -0.8027 C   0  0  0  0  0  0  0  0  0  0  0  0
   -1.1465   -0.6442   -0.8389 C   0  0  0  0  0  0  0  0  0  0  0  0
   -1.1570   -2.0370   -0.9148 O   0  0  0  0  0  0  0  0  0  0  0  0
   -2.0010   -0.1601    0.2874 C   0  0  0  0  0  0  0  0  0  0  0  0
   -3.3725   -0.5970    0.0948 N   0  0  0  0  0  0  0  0  0  0  0  0
    1.1406   -0.7859   -1.6802 C   0  0  0  0  0  0  0  0  0  0  0  0
    2.4764   -0.4417   -1.7183 C   0  0  0  0  0  0  0  0  0  0  0  0
    2.9525    0.5153   -0.8462 C   0  0  0  0  0  0  0  0  0  0  0  0
    4.3079    0.8942   -0.8532 O   0  0  0  0  0  0  0  0  0  0  0  0
   -0.2038   -0.0282   -0.2953 H   0  0  0  0  0  0  0  0  0  0  0  0
    2.4928    3.1755    2.6621 H   0  0  0  0  0  0  0  0  0  0  0  0
    1.1274    2.0018    2.3319 H   0  0  0  0  0  0  0  0  0  0  0  0
    1.3006    3.5829    1.3775 H   0  0  0  0  0  0  0  0  0  0  0  0
    0.1073    1.2114    0.7522 H   0  0  0  0  0  0  0  0  0  0  0  0
   -1.6032   -0.2900   -1.8001 H   0  0  0  0  0  0  0  0  0  0  0  0
   -2.0814   -2.3908   -0.8355 H   0  0  0  0  0  0  0  0  0  0  0  0
   -1.8934    0.8936    0.5274 H   0  0  0  0  0  0  0  0  0  0  0  0
   -1.6642   -0.7011    1.2081 H   0  0  0  0  0  0  0  0  0  0  0  0
   -4.0817   -0.0055    0.5434 H   0  0  0  0  0  0  0  0  0  0  0  0
   -3.5861   -0.8683   -0.8862 H   0  0  0  0  0  0  0  0  0  0  0  0
    0.8126   -1.5539   -2.3965 H   0  0  0  0  0  0  0  0  0  0  0  0
    3.1586   -0.8995   -2.4104 H   0  0  0  0  0  0  0  0  0  0  0  0
    4.6175    1.6220   -1.5070 H   0  0  0  0  0  0  0  0  0  0  0  0
  2  3  1  0
  3  4  1  0
  4  5  2  0
  5  6  1  0
  6  7  1  0
  7  8  1  0
  7  9  1  0
  9 10  1  0
  6 11  2  0
 11 12  1  0
 12 13  2  0
 13 14  1  0
 13  4  1  0
  1 15  1  0
  2 16  1  0
  2 17  1  0
  2 18  1  0
  5 19  1  0
  7 20  1  0
  8 21  1  0
  9 22  1  0
  9 23  1  0
 10 24  1  0
 10 25  1  0
 11 26  1  0
 12 27  1  0
 14 28  1  0
M  END
>  <mol_id>  (46) 
Z2574937385

>  <drugclip_rank>  (46) 
46

>  <conformer>  (46) 
15

>  <align_rmsd>  (46) 
0.604

$$$$
Z5219061923
     RDKit          3D

 41 43  0  0  0  0  0  0  0  0999 V2000
   -5.0910    2.6426    3.0184 N   0  0  0  0  0  0  0  0  0  0  0  0
   -4.8582    1.4030    3.7469 C   0  0  0  0  0  0  0  0  0  0  0  0
   -4.3103    0.2646    2.8830 C   0  0  0  0  0  0  0  0  0  0  0  0
   -5.2408   -0.2215    1.7693 C   0  0  0  0  0  0  0  0  0  0  0  0
   -4.3184   -0.8651    0.7245 C   0  0  2  0  0  0  0  0  0  0  0  0
   -4.6018   -2.2604    0.6183 O   0  0  0  0  0  0  0  0  0  0  0  0
   -2.8550   -0.6140    1.1951 C   0  0  2  0  0  0  0  0  0  0  0  0
   -3.0128    0.5875    2.1400 C   0  0  0  0  0  0  0  0  0  0  0  0
   -1.8832   -0.3870    0.1042 N   0  0  0  0  0  0  0  0  0  0  0  0
   -1.7946   -1.5499   -0.7981 C   0  0  0  0  0  0  0  0  0  0  0  0
   -0.9408   -1.2250   -2.0315 C   0  0  0  0  0  0  0  0  0  0  0  0
   -0.5395   -0.0754    0.6386 C   0  0  0  0  0  0  0  0  0  0  0  0
    0.5554   -0.0216   -0.4064 C   0  0  0  0  0  0  0  0  0  0  0  0
    0.3837   -0.6082   -1.6708 C   0  0  0  0  0  0  0  0  0  0  0  0
    1.7870    0.5702   -0.0891 C   0  0  0  0  0  0  0  0  0  0  0  0
    2.8127    0.5964   -1.0273 C   0  0  0  0  0  0  0  0  0  0  0  0
    3.9875    1.1884   -0.6670 O   0  0  0  0  0  0  0  0  0  0  0  0
    2.6414    0.0364   -2.2881 C   0  0  0  0  0  0  0  0  0  0  0  0
    1.4237   -0.5636   -2.6104 C   0  0  0  0  0  0  0  0  0  0  0  0
   -5.4178    3.3604    3.6647 H   0  0  0  0  0  0  0  0  0  0  0  0
   -5.8392    2.5193    2.3381 H   0  0  0  0  0  0  0  0  0  0  0  0
   -4.1443    1.6091    4.5525 H   0  0  0  0  0  0  0  0  0  0  0  0
   -5.7941    1.0856    4.2206 H   0  0  0  0  0  0  0  0  0  0  0  0
   -4.1162   -0.5863    3.5521 H   0  0  0  0  0  0  0  0  0  0  0  0
   -5.7684    0.6163    1.3009 H   0  0  0  0  0  0  0  0  0  0  0  0
   -5.9976   -0.9121    2.1563 H   0  0  0  0  0  0  0  0  0  0  0  0
   -4.5110   -0.4128   -0.2552 H   0  0  0  0  0  0  0  0  0  0  0  0
   -4.4486   -2.6638    1.4891 H   0  0  0  0  0  0  0  0  0  0  0  0
   -2.5235   -1.4817    1.7846 H   0  0  0  0  0  0  0  0  0  0  0  0
   -2.1727    0.6835    2.8355 H   0  0  0  0  0  0  0  0  0  0  0  0
   -3.0977    1.5202    1.5689 H   0  0  0  0  0  0  0  0  0  0  0  0
   -2.7818   -1.8421   -1.1704 H   0  0  0  0  0  0  0  0  0  0  0  0
   -1.3789   -2.4173   -0.2675 H   0  0  0  0  0  0  0  0  0  0  0  0
   -1.4820   -0.5225   -2.6779 H   0  0  0  0  0  0  0  0  0  0  0  0
   -0.7787   -2.1482   -2.6007 H   0  0  0  0  0  0  0  0  0  0  0  0
   -0.2435   -0.8211    1.3886 H   0  0  0  0  0  0  0  0  0  0  0  0
   -0.5732    0.9065    1.1252 H   0  0  0  0  0  0  0  0  0  0  0  0
    1.9494    1.0154    0.8890 H   0  0  0  0  0  0  0  0  0  0  0  0
    4.5934    1.1531   -1.4249 H   0  0  0  0  0  0  0  0  0  0  0  0
    3.4349    0.0576   -3.0276 H   0  0  0  0  0  0  0  0  0  0  0  0
    1.2853   -0.9959   -3.5987 H   0  0  0  0  0  0  0  0  0  0  0  0
  1  2  1  0
  2  3  1  0
  3  4  1  0
  4  5  1  0
  5  6  1  0
  5  7  1  0
  7  8  1  0
  7  9  1  0
  9 10  1  0
 10 11  1  0
  9 12  1  0
 12 13  1  0
 13 14  2  0
 13 15  1  0
 15 16  2  0
 16 17  1  0
 16 18  1  0
 18 19  2  0
  8  3  1  0
 14 11  1  0
 19 14  1  0
  1 20  1  0
  1 21  1  0
  2 22  1  0
  2 23  1  0
  3 24  1  0
  4 25  1  0
  4 26  1  0
  5 27  1  6
  6 28  1  0
  7 29  1  1
  8 30  1  0
  8 31  1  0
 10 32  1  0
 10 33  1  0
 11 34  1  0
 11 35  1  0
 12 36  1  0
 12 37  1  0
 15 38  1  0
 17 39  1  0
 18 40  1  0
 19 41  1  0
M  END
>  <mol_id>  (47) 
Z5219061923

>  <drugclip_rank>  (47) 
47

>  <conformer>  (47) 
18

>  <align_rmsd>  (47) 
0.404

$$$$
Z4574899614
     RDKit          3D

 30 29  0  0  0  0  0  0  0  0999 V2000
    1.5795   -0.1264   -1.8940 Cl  0  0  0  0  0  0  0  0  0  0  0  0
    4.4196   -0.5574   -4.5427 C   0  0  0  0  0  0  0  0  0  0  0  0
    4.1990   -0.0566   -3.2576 O   0  0  0  0  0  0  0  0  0  0  0  0
    3.0447   -0.2752   -2.5176 C   0  0  0  0  0  0  0  0  0  0  0  0
    1.9817   -1.0209   -2.9839 C   0  0  0  0  0  0  0  0  0  0  0  0
    0.8544   -1.1939   -2.1760 C   0  0  0  0  0  0  0  0  0  0  0  0
    0.7895   -0.6249   -0.9092 C   0  0  0  0  0  0  0  0  0  0  0  0
    1.8757    0.1279   -0.4522 C   0  0  0  0  0  0  0  0  0  0  0  0
    2.9919    0.2945   -1.2621 C   0  0  0  0  0  0  0  0  0  0  0  0
    4.0328    1.0575   -0.7364 O   0  0  0  0  0  0  0  0  0  0  0  0
   -0.3811   -0.7855   -0.0300 C   0  0  0  0  0  0  0  0  0  0  0  0
   -1.4114    0.3037   -0.2300 C   0  0  0  0  0  0  0  0  0  0  0  0
   -1.9268    0.3113   -1.6633 C   0  0  0  0  0  0  0  0  0  0  0  0
   -2.5618    0.0098    0.6047 N   0  0  0  0  0  0  0  0  0  0  0  0
    0.2951   -0.1248   -1.3963 H   0  0  0  0  0  0  0  0  0  0  0  0
    5.5352   -0.6353   -4.6646 H   0  0  0  0  0  0  0  0  0  0  0  0
    3.9567   -1.5592   -4.6462 H   0  0  0  0  0  0  0  0  0  0  0  0
    4.0642    0.1815   -5.2858 H   0  0  0  0  0  0  0  0  0  0  0  0
    2.0228   -1.4659   -3.9646 H   0  0  0  0  0  0  0  0  0  0  0  0
    0.0322   -1.7800   -2.5562 H   0  0  0  0  0  0  0  0  0  0  0  0
    1.8445    0.5819    0.5371 H   0  0  0  0  0  0  0  0  0  0  0  0
    4.6722    1.5920   -1.2869 H   0  0  0  0  0  0  0  0  0  0  0  0
   -0.0344   -0.6995    1.0243 H   0  0  0  0  0  0  0  0  0  0  0  0
   -0.8483   -1.7827   -0.0991 H   0  0  0  0  0  0  0  0  0  0  0  0
   -0.9982    1.2851    0.0442 H   0  0  0  0  0  0  0  0  0  0  0  0
   -1.3085    0.9548   -2.3113 H   0  0  0  0  0  0  0  0  0  0  0  0
   -2.0556   -0.7186   -2.0325 H   0  0  0  0  0  0  0  0  0  0  0  0
   -2.9637    0.7526   -1.7010 H   0  0  0  0  0  0  0  0  0  0  0  0
   -2.5252    0.4961    1.5242 H   0  0  0  0  0  0  0  0  0  0  0  0
   -2.5920   -1.0316    0.7189 H   0  0  0  0  0  0  0  0  0  0  0  0
  2  3  1  0
  3  4  1  0
  4  5  2  0
  5  6  1  0
  6  7  2  0
  7  8  1  0
  8  9  2  0
  9 10  1  0
  7 11  1  0
 11 12  1  0
 12 13  1  0
 12 14  1  0
  9  4  1  0
  1 15  1  0
  2 16  1  0
  2 17  1  0
  2 18  1  0
  5 19  1  0
  6 20  1  0
  8 21  1  0
 10 22  1  0
 11 23  1  0
 11 24  1  0
 12 25  1  0
 13 26  1  0
 13 27  1  0
 13 28  1  0
 14 29  1  0
 14 30  1  0
M  END
>  <mol_id>  (48) 
Z4574899614

>  <drugclip_rank>  (48) 
48

>  <conformer>  (48) 
6

>  <align_rmsd>  (48) 
0.351

$$$$
FCG928091309
     RDKit          3D

 35 36  0  0  0  0  0  0  0  0999 V2000
   -5.0095   -5.7424   -1.2784 N   0  0  0  0  0  0  0  0  0  0  0  0
   -5.2768   -4.9147   -0.1074 C   0  0  0  0  0  0  0  0  0  0  0  0
   -3.9923   -4.3461    0.4917 C   0  0  0  0  0  0  0  0  0  0  0  0
   -3.2391   -3.4308   -0.4769 C   0  0  0  0  0  0  0  0  0  0  0  0
   -2.0139   -2.7998    0.1657 C   0  0  0  0  0  0  0  0  0  0  0  0
   -1.7514   -2.9795    1.3560 O   0  0  0  0  0  0  0  0  0  0  0  0
   -1.2038   -2.0193   -0.6541 N   0  0  0  0  0  0  0  0  0  0  0  0
   -1.6061   -1.5104   -1.9644 C   0  0  0  0  0  0  0  0  0  0  0  0
   -0.4281   -1.4843   -2.9357 C   0  0  0  0  0  0  0  0  0  0  0  0
   -0.0964   -1.3226   -0.0031 C   0  0  0  0  0  0  0  0  0  0  0  0
    0.9205   -0.7231   -0.9472 C   0  0  0  0  0  0  0  0  0  0  0  0
    0.7611   -0.7764   -2.3433 C   0  0  0  0  0  0  0  0  0  0  0  0
    2.0484   -0.0817   -0.4134 C   0  0  0  0  0  0  0  0  0  0  0  0
    3.0010    0.4787   -1.2569 C   0  0  0  0  0  0  0  0  0  0  0  0
    4.0770    1.0879   -0.6821 O   0  0  0  0  0  0  0  0  0  0  0  0
    2.8575    0.4140   -2.6376 C   0  0  0  0  0  0  0  0  0  0  0  0
    1.7386   -0.2186   -3.1805 C   0  0  0  0  0  0  0  0  0  0  0  0
   -4.4114   -6.5243   -1.0099 H   0  0  0  0  0  0  0  0  0  0  0  0
   -5.8831   -6.1573   -1.6016 H   0  0  0  0  0  0  0  0  0  0  0  0
   -5.9506   -4.0989   -0.3909 H   0  0  0  0  0  0  0  0  0  0  0  0
   -5.7925   -5.5179    0.6478 H   0  0  0  0  0  0  0  0  0  0  0  0
   -4.2532   -3.7851    1.3981 H   0  0  0  0  0  0  0  0  0  0  0  0
   -3.3356   -5.1645    0.8139 H   0  0  0  0  0  0  0  0  0  0  0  0
   -3.9087   -2.6279   -0.8049 H   0  0  0  0  0  0  0  0  0  0  0  0
   -2.9090   -4.0077   -1.3476 H   0  0  0  0  0  0  0  0  0  0  0  0
   -2.4087   -2.1080   -2.4017 H   0  0  0  0  0  0  0  0  0  0  0  0
   -2.0058   -0.5005   -1.8076 H   0  0  0  0  0  0  0  0  0  0  0  0
   -0.7418   -0.9909   -3.8628 H   0  0  0  0  0  0  0  0  0  0  0  0
   -0.1274   -2.5100   -3.1822 H   0  0  0  0  0  0  0  0  0  0  0  0
    0.4100   -2.0224    0.6727 H   0  0  0  0  0  0  0  0  0  0  0  0
   -0.5354   -0.5188    0.6015 H   0  0  0  0  0  0  0  0  0  0  0  0
    2.1902   -0.0211    0.6632 H   0  0  0  0  0  0  0  0  0  0  0  0
    4.6592    1.4163   -1.3864 H   0  0  0  0  0  0  0  0  0  0  0  0
    3.6001    0.8432   -3.3023 H   0  0  0  0  0  0  0  0  0  0  0  0
    1.6317   -0.2756   -4.2615 H   0  0  0  0  0  0  0  0  0  0  0  0
  1  2  1  0
  2  3  1  0
  3  4  1  0
  4  5  1  0
  5  6  2  0
  5  7  1  0
  7  8  1  0
  8  9  1  0
  7 10  1  0
 10 11  1  0
 11 12  2  0
 11 13  1  0
 13 14  2  0
 14 15  1  0
 14 16  1  0
 16 17  2  0
 12  9  1  0
 17 12  1  0
  1 18  1  0
  1 19  1  0
  2 20  1  0
  2 21  1  0
  3 22  1  0
  3 23  1  0
  4 24  1  0
  4 25  1  0
  8 26  1  0
  8 27  1  0
  9 28  1  0
  9 29  1  0
 10 30  1  0
 10 31  1  0
 13 32  1  0
 15 33  1  0
 16 34  1  0
 17 35  1  0
M  END
>  <mol_id>  (49) 
FCG928091309

>  <drugclip_rank>  (49) 
49

>  <conformer>  (49) 
10

>  <align_rmsd>  (49) 
0.279

$$$$
FCG2435177302
     RDKit          3D

 35 36  0  0  0  0  0  0  0  0999 V2000
   -3.1074   -3.7121    2.5258 C   0  0  0  0  0  0  0  0  0  0  0  0
   -3.7132   -2.4382    1.9489 C   0  0  0  0  0  0  0  0  0  0  0  0
   -2.7042   -1.6427    1.1060 C   0  0  2  0  0  0  0  0  0  0  0  0
   -3.3089   -0.3355    0.7630 N   0  0  0  0  0  0  0  0  0  0  0  0
   -2.3391   -2.3703   -0.2189 C   0  0  0  0  0  0  0  0  0  0  0  0
   -3.0996   -3.2082   -0.7100 O   0  0  0  0  0  0  0  0  0  0  0  0
   -1.1694   -1.9691   -0.8713 N   0  0  0  0  0  0  0  0  0  0  0  0
   -0.7797   -2.7061   -2.0714 C   0  0  0  0  0  0  0  0  0  0  0  0
   -0.0909   -1.7994   -3.0868 C   0  0  0  0  0  0  0  0  0  0  0  0
   -0.0979   -1.2439   -0.1858 C   0  0  0  0  0  0  0  0  0  0  0  0
    1.0227   -0.7637   -1.0779 C   0  0  0  0  0  0  0  0  0  0  0  0
    1.0435   -1.0359   -2.4569 C   0  0  0  0  0  0  0  0  0  0  0  0
    2.0766   -0.0308   -0.5118 C   0  0  0  0  0  0  0  0  0  0  0  0
    3.1179    0.4302   -1.3096 C   0  0  0  0  0  0  0  0  0  0  0  0
    4.1134    1.1379   -0.7041 O   0  0  0  0  0  0  0  0  0  0  0  0
    3.1351    0.1784   -2.6760 C   0  0  0  0  0  0  0  0  0  0  0  0
    2.0938   -0.5514   -3.2501 C   0  0  0  0  0  0  0  0  0  0  0  0
   -3.8436   -4.2288    3.1499 H   0  0  0  0  0  0  0  0  0  0  0  0
   -2.2372   -3.4835    3.1494 H   0  0  0  0  0  0  0  0  0  0  0  0
   -2.7931   -4.4025    1.7376 H   0  0  0  0  0  0  0  0  0  0  0  0
   -4.0618   -1.8196    2.7860 H   0  0  0  0  0  0  0  0  0  0  0  0
   -4.5995   -2.7000    1.3576 H   0  0  0  0  0  0  0  0  0  0  0  0
   -1.8080   -1.4782    1.7105 H   0  0  0  0  0  0  0  0  0  0  0  0
   -2.7196    0.1351    0.0756 H   0  0  0  0  0  0  0  0  0  0  0  0
   -4.1902   -0.5138    0.2758 H   0  0  0  0  0  0  0  0  0  0  0  0
   -1.6504   -3.1717   -2.5452 H   0  0  0  0  0  0  0  0  0  0  0  0
   -0.1121   -3.5167   -1.7521 H   0  0  0  0  0  0  0  0  0  0  0  0
    0.2765   -2.4104   -3.9194 H   0  0  0  0  0  0  0  0  0  0  0  0
   -0.8100   -1.0751   -3.4884 H   0  0  0  0  0  0  0  0  0  0  0  0
    0.3141   -1.9226    0.5711 H   0  0  0  0  0  0  0  0  0  0  0  0
   -0.5248   -0.3740    0.3218 H   0  0  0  0  0  0  0  0  0  0  0  0
    2.0895    0.1883    0.5533 H   0  0  0  0  0  0  0  0  0  0  0  0
    4.7625    1.3981   -1.3783 H   0  0  0  0  0  0  0  0  0  0  0  0
    3.9410    0.5403   -3.3063 H   0  0  0  0  0  0  0  0  0  0  0  0
    2.1047   -0.7422   -4.3211 H   0  0  0  0  0  0  0  0  0  0  0  0
  1  2  1  0
  2  3  1  0
  3  4  1  0
  3  5  1  0
  5  6  2  0
  5  7  1  0
  7  8  1  0
  8  9  1  0
  7 10  1  0
 10 11  1  0
 11 12  2  0
 11 13  1  0
 13 14  2  0
 14 15  1  0
 14 16  1  0
 16 17  2  0
 12  9  1  0
 17 12  1  0
  1 18  1  0
  1 19  1  0
  1 20  1  0
  2 21  1  0
  2 22  1  0
  3 23  1  1
  4 24  1  0
  4 25  1  0
  8 26  1  0
  8 27  1  0
  9 28  1  0
  9 29  1  0
 10 30  1  0
 10 31  1  0
 13 32  1  0
 15 33  1  0
 16 34  1  0
 17 35  1  0
M  END
>  <mol_id>  (50) 
FCG2435177302

>  <drugclip_rank>  (50) 
50

>  <conformer>  (50) 
1

>  <align_rmsd>  (50) 
0.397

$$$$
