Z955123630
     RDKit          3D

 35 34  0  0  0  0  0  0  0  0999 V2000
   -1.5612   -0.9228   -1.3552 O   0  0  0  0  0  0  0  0  0  0  0  0
   -0.6531   -0.8212   -0.2414 S   0  0  0  0  0  0  0  0  0  0  0  0
   -0.3490   -1.9132    0.6482 O   0  0  0  0  0  0  0  0  0  0  0  0
    0.7243   -0.2496   -0.8315 O   0  0  0  0  0  0  0  0  0  0  0  0
   -1.1249    0.3999    0.6863 O   0  0  0  0  0  0  0  0  0  0  0  0
   -4.1038   -0.3370    2.4787 C   0  0  0  0  0  0  0  0  0  0  0  0
   -2.6582   -0.1023    2.0276 C   0  0  0  0  0  0  0  0  0  0  0  0
   -1.7151   -0.9773    2.8536 C   0  0  0  0  0  0  0  0  0  0  0  0
   -2.5805   -0.3843    0.5840 N   0  0  0  0  0  0  0  0  0  0  0  0
   -1.3037    0.0466   -0.0314 C   0  0  0  0  0  0  0  0  0  0  0  0
   -0.3361   -1.1437   -0.2440 C   0  0  1  0  0  0  0  0  0  0  0  0
   -1.0705   -2.2188   -0.8435 O   0  0  0  0  0  0  0  0  0  0  0  0
    0.8541   -0.7546   -1.0941 C   0  0  0  0  0  0  0  0  0  0  0  0
    0.9564   -1.1248   -2.4437 C   0  0  0  0  0  0  0  0  0  0  0  0
    2.0631   -0.7325   -3.1951 C   0  0  0  0  0  0  0  0  0  0  0  0
    2.1900   -1.0941   -4.5053 O   0  0  0  0  0  0  0  0  0  0  0  0
    3.0777    0.0342   -2.6353 C   0  0  0  0  0  0  0  0  0  0  0  0
    2.9792    0.4024   -1.2996 C   0  0  0  0  0  0  0  0  0  0  0  0
    3.9487    1.1441   -0.6932 O   0  0  0  0  0  0  0  0  0  0  0  0
    1.8841    0.0177   -0.5302 C   0  0  0  0  0  0  0  0  0  0  0  0
   -4.1036   -0.3356    2.4777 C   0  0  0  0  0  0  0  0  0  0  0  0
   -2.6613   -0.0934    2.0215 C   0  0  0  0  0  0  0  0  0  0  0  0
   -1.7098   -0.9517    2.8548 C   0  0  0  0  0  0  0  0  0  0  0  0
   -2.5839   -0.3914    0.5808 N   0  0  0  0  0  0  0  0  0  0  0  0
   -1.3104    0.0408   -0.0406 C   0  0  0  0  0  0  0  0  0  0  0  0
   -0.3371   -1.1464   -0.2431 C   0  0  1  0  0  0  0  0  0  0  0  0
   -1.0656   -2.2276   -0.8383 O   0  0  0  0  0  0  0  0  0  0  0  0
    0.8535   -0.7576   -1.0927 C   0  0  0  0  0  0  0  0  0  0  0  0
    0.9617   -1.1364   -2.4393 C   0  0  0  0  0  0  0  0  0  0  0  0
    2.0694   -0.7451   -3.1900 C   0  0  0  0  0  0  0  0  0  0  0  0
    2.2013   -1.1164   -4.4969 O   0  0  0  0  0  0  0  0  0  0  0  0
    3.0780    0.0299   -2.6317 C   0  0  0  0  0  0  0  0  0  0  0  0
    2.9743    0.4047   -1.2981 C   0  0  0  0  0  0  0  0  0  0  0  0
    3.9400    1.1535   -0.6932 O   0  0  0  0  0  0  0  0  0  0  0  0
    1.8790    0.0205   -0.5297 C   0  0  0  0  0  0  0  0  0  0  0  0
  1  2  2  0
  2  3  2  0
  2  4  1  0
  2  5  1  0
  6  7  1  0
  7  8  1  0
  7  9  1  0
  9 10  1  0
 10 11  1  0
 11 12  1  6
 11 13  1  0
 13 14  2  0
 14 15  1  0
 15 16  1  0
 15 17  2  0
 17 18  1  0
 18 19  1  0
 18 20  2  0
 21 22  1  0
 22 23  1  0
 22 24  1  0
 24 25  1  0
 25 26  1  0
 26 27  1  6
 26 28  1  0
 28 29  2  0
 29 30  1  0
 30 31  1  0
 30 32  2  0
 32 33  1  0
 33 34  1  0
 33 35  2  0
 20 13  1  0
 35 28  1  0
M  END
>  <mol_id>  (1) 
Z955123630

>  <drugclip_rank>  (1) 
15

>  <conformer>  (1) 
1

>  <align_rmsd>  (1) 
0.325

$$$$
