@<TRIPOS>MOLECULE
1ODY_LP1_A201
 58 61 0 0 0
SMALL
GASTEIGER

@<TRIPOS>ATOM
      1 C          -4.4520   17.3710   18.5220 C.3     1  UNL1        0.0964
      2 C          -4.7050   17.0630   20.0170 C.2     1  UNL1        0.2423
      3 C          -2.9050   18.4500   22.9650 C.ar    1  UNL1       -0.0199
      4 C          -2.1630   19.4110   22.2700 C.ar    1  UNL1       -0.0042
      5 C          -0.8000   19.2260   22.0290 C.ar    1  UNL1       -0.0003
      6 C          -0.1250   18.0910   22.5010 C.ar    1  UNL1       -0.0000
      7 C          -2.2400   17.3230   23.4410 C.ar    1  UNL1       -0.0039
      8 C          -0.8590   17.1200   23.2040 C.ar    1  UNL1       -0.0003
      9 C          -2.9210   16.3670   24.1810 C.ar    1  UNL1       -0.0003
     10 C          -0.1990   15.9870   23.6860 C.ar    1  UNL1       -0.0000
     11 C          -2.2360   15.2450   24.6390 C.ar    1  UNL1       -0.0000
     12 C          -0.9020   15.0320   24.3920 C.ar    1  UNL1       -0.0000
     13 C          -8.4920   17.1710   23.6780 C.3     1  UNL1        0.1727
     14 C          -8.4610   16.9970   25.1610 C.2     1  UNL1        0.2612
     15 C         -10.7720   16.3400   23.3040 C.3     1  UNL1        0.0023
     16 N          -8.8580   17.9560   25.9890 N.am    1  UNL1       -0.2031
     17 C          -8.6970   17.6990   27.4150 C.3     1  UNL1        0.1261
     18 C          -5.3200   19.5380   26.7680 C.3     1  UNL1        0.0001
     19 C          -5.0500   17.3290   27.7260 C.3     1  UNL1        0.0001
     20 C          -9.9600   17.9980   28.2800 C.3     1  UNL1        0.1809
     21 C         -10.7880   16.7590   28.6580 C.3     1  UNL1        0.1214
     22 C         -10.2810   15.8880   29.8070 C.2     1  UNL1        0.2444
     23 O          -4.6750   15.8880   20.3870 O.2     1  UNL1       -0.2733
     24 N          -4.9580   18.1550   20.7640 N.am    1  UNL1       -0.1974
     25 C          -5.2650   17.9830   22.1590 C.3     1  UNL1        0.1770
     26 C          -4.3570   18.7140   23.1530 C.3     1  UNL1        0.0574
     27 C          -6.7140   18.2310   22.5000 C.2     1  UNL1        0.2619
     28 O          -7.5150   19.1230   22.3170 O.2     1  UNL1       -0.2715
     29 N          -7.1540   17.1580   23.1570 N.am    1  UNL1       -0.1963
     30 O          -8.0480   15.9440   25.5820 O.2     1  UNL1       -0.2715
     31 C          -9.3350   16.1310   22.9050 C.3     1  UNL1        0.0290
     32 C          -9.1680   16.3890   21.4330 C.3     1  UNL1        0.0023
     33 C          -7.3910   18.4670   27.8110 C.3     1  UNL1        0.0243
     34 C          -6.0460   18.2560   27.0750 C.3     1  UNL1        0.0018
     35 O         -10.8220   18.9510   27.7130 O.3     1  UNL1       -0.2208
     36 O          -9.4210   15.0080   29.7200 O.2     1  UNL1       -0.2732
     37 N         -10.7970   16.0660   31.0260 N.am    1  UNL1       -0.1977
     38 C         -10.5130   15.3280   32.2210 C.3     1  UNL1        0.1727
     39 C          -9.3940   15.9590   33.0980 C.3     1  UNL1        0.0311
     40 C          -8.2490   16.5010   32.2760 C.3     1  UNL1        0.0023
     41 C         -11.7650   15.1010   33.0510 C.2     1  UNL1        0.2616
     42 O         -12.5630   16.0030   33.4110 O.2     1  UNL1       -0.2715
     43 N         -11.9210   13.8200   33.4550 N.am    1  UNL1       -0.1959
     44 C         -13.0470   13.4120   34.2690 C.3     1  UNL1        0.1787
     45 C         -14.3050   13.0480   33.4280 C.3     1  UNL1        0.0575
     46 C         -13.8780   12.1390   32.2600 C.ar    1  UNL1       -0.0199
     47 C         -13.6830   10.7810   32.5290 C.ar    1  UNL1       -0.0042
     48 C         -13.2050    9.9290   31.5260 C.ar    1  UNL1       -0.0003
     49 C         -12.9510   10.4040   30.2500 C.ar    1  UNL1       -0.0000
     50 C         -13.5930   12.6450   30.9720 C.ar    1  UNL1       -0.0039
     51 C         -13.1480   11.7520   29.9320 C.ar    1  UNL1       -0.0003
     52 C         -13.7850   13.9890   30.6410 C.ar    1  UNL1       -0.0003
     53 C         -12.9110   12.2570   28.6450 C.ar    1  UNL1       -0.0000
     54 C         -13.5420   14.4560   29.3410 C.ar    1  UNL1       -0.0000
     55 C         -13.0930   13.6140   28.3560 C.ar    1  UNL1       -0.0000
     56 C         -12.5700   12.5470   35.3830 C.2     1  UNL1        0.2809
     57 O         -11.6150   11.7500   35.2660 O.2     1  UNL1       -0.2698
     58 N         -13.1180   12.6310   36.5810 N.am    1  UNL1       -0.0863
@<TRIPOS>BOND
     1     2     1    1
     2     4     3   ar
     3     5     4   ar
     4     6     5   ar
     5     7     3   ar
     6     8     7   ar
     7     8     6   ar
     8     9     7   ar
     9    10     8   ar
    10    11     9   ar
    11    12    11   ar
    12    12    10   ar
    13    14    13    1
    14    16    14   am
    15    17    16    1
    16    20    17    1
    17    21    20    1
    18    22    21    1
    19    23     2    2
    20    24     2   am
    21    25    24    1
    22    25    26    1
    23    26     3    1
    24    27    25    1
    25    28    27    2
    26    29    27   am
    27    13    29    1
    28    30    14    2
    29    31    15    1
    30    31    13    1
    31    32    31    1
    32    17    33    1
    33    34    33    1
    34    34    18    1
    35    34    19    1
    36    20    35    1
    37    36    22    2
    38    37    22   am
    39    38    37    1
    40    38    39    1
    41    40    39    1
    42    41    38    1
    43    42    41    2
    44    43    41   am
    45    44    43    1
    46    44    45    1
    47    46    45    1
    48    47    46   ar
    49    48    47   ar
    50    49    48   ar
    51    50    46   ar
    52    51    49   ar
    53    51    50   ar
    54    52    50   ar
    55    53    51   ar
    56    54    52   ar
    57    55    54   ar
    58    55    53   ar
    59    56    44    1
    60    57    56    2
    61    58    56   am
