@<TRIPOS>MOLECULE
2WHH_GLU_A2302
 10 9 0 0 0
SMALL
GASTEIGER

@<TRIPOS>ATOM
      1 N          -7.7490   18.0130   24.5810 N.3     1  GLU1       -0.1208
      2 CA         -7.6130   17.0880   23.4830 C.3     1  GLU1        0.1949
      3 C          -6.8440   17.7680   22.3610 C.2     1  GLU1        0.3819
      4 O          -6.8530   19.0240   22.2950 O.co2   1  GLU1       -0.2441
      5 CB         -9.0010   16.6490   23.0160 C.3     1  GLU1        0.0424
      6 CG         -9.0240   15.8480   21.7450 C.3     1  GLU1        0.1161
      7 CD         -8.7810   16.7140   20.5310 C.2     1  GLU1        0.3649
      8 OE1        -9.2380   17.8750   20.5410 O.co2   1  GLU1       -0.2457
      9 OE2        -8.1390   16.2390   19.5680 O.co2   1  GLU1       -0.2457
     10 OXT        -6.2390   17.0330   21.5500 O.co2   1  GLU1       -0.2441
@<TRIPOS>BOND
     1     2     1    1
     2     3     2    1
     3     4     3   ar
     4     5     2    1
     5     6     5    1
     6     7     6    1
     7     8     7   ar
     8     9     7   ar
     9    10     3   ar
