@<TRIPOS>MOLECULE
4U7Q_3EM_B101
 57 61 0 0 0
SMALL
GASTEIGER

@<TRIPOS>ATOM
      1 C          -7.6190   16.5860   20.5310 C.ar    1  UNL1        0.1343
      2 C          -8.7270   15.4750   24.1530 C.3     1  UNL1        0.2448
      3 C         -11.7040   15.7640   29.5530 C.3     1  UNL1        0.1023
      4 C         -12.5420   14.6850   34.4800 C.2     1  UNL1        0.4218
      5 C          -9.3770   16.6560   21.9840 C.ar    1  UNL1        0.1053
      6 C          -8.4940   16.0000   22.7330 C.ar    1  UNL1        0.0714
      7 N          -9.1090   17.3730   27.0780 N.am    1  UNL1       -0.1675
      8 C          -9.3110   17.2450   28.5280 C.3     1  UNL1        0.1333
      9 C         -11.7820   16.9700   28.6290 C.3     1  UNL1        0.0567
     10 C         -10.5630   15.5520   31.7470 C.2     1  UNL1        0.2613
     11 C         -10.6570   15.9110   33.2610 C.3     1  UNL1        0.1760
     12 C         -19.4760    8.2890   35.7120 C.3     1  UNL1        0.0232
     13 C         -19.6610    8.8260   37.1200 C.3     1  UNL1        0.0908
     14 N         -19.5590   10.3070   37.1460 N.pl3   1  UNL1       -0.3074
     15 C         -20.4570   10.9370   36.1620 C.3     1  UNL1        0.0908
     16 C         -21.4110   11.7620   36.9980 C.3     1  UNL1        0.0232
     17 C         -18.3090   10.7210   36.8750 C.ar    1  UNL1        0.0509
     18 C         -17.2560    9.8340   36.6890 C.ar    1  UNL1        0.0521
     19 C         -18.0450   12.0740   36.7810 C.ar    1  UNL1        0.0147
     20 C         -16.7570   12.5100   36.4450 C.ar    1  UNL1        0.0041
     21 C         -15.7000   11.6220   36.2620 C.ar    1  UNL1        0.0345
     22 C         -15.9760   10.2700   36.3970 C.ar    1  UNL1        0.1497
     23 O         -14.9970    9.3510   36.2630 O.2     1  UNL1       -0.4210
     24 C         -13.7300    9.7460   35.9900 C.ar    1  UNL1        0.3457
     25 O         -12.8490    8.8960   35.8440 O.2     1  UNL1       -0.2445
     26 C         -13.4270   11.1070   35.8190 C.ar    1  UNL1        0.0817
     27 C         -14.4190   12.0740   35.9340 C.ar    1  UNL1        0.0307
     28 C         -14.1560   13.4410   35.7720 C.3     1  UNL1        0.2371
     29 O         -12.9340   13.4850   35.0060 O.3     1  UNL1       -0.4285
     30 O         -13.3360   15.6160   34.4370 O.2     1  UNL1       -0.2245
     31 N         -11.2880   14.7630   33.9520 N.am    1  UNL1       -0.1611
     32 C          -9.2420   16.1240   33.8290 C.3     1  UNL1        0.0291
     33 C          -9.3050   16.6510   35.2830 C.3     1  UNL1        0.0023
     34 C          -8.4170   17.0620   32.9430 C.3     1  UNL1        0.0023
     35 O          -9.6370   14.8380   31.2960 O.2     1  UNL1       -0.2715
     36 N         -11.5600   16.0520   30.9890 N.am    1  UNL1       -0.2053
     37 C         -13.0590   15.1040   29.4190 C.3     1  UNL1        0.0481
     38 C         -12.7010   13.9270   28.8390 C.ar    1  UNL1       -0.0205
     39 C         -12.9220   12.7410   29.5210 C.ar    1  UNL1       -0.0042
     40 C         -12.5620   11.5480   28.9460 C.ar    1  UNL1       -0.0003
     41 C         -12.0110   11.5420   27.6700 C.ar    1  UNL1       -0.0000
     42 C         -11.8000   12.7360   26.9840 C.ar    1  UNL1       -0.0003
     43 C         -12.1480   13.9420   27.5640 C.ar    1  UNL1       -0.0042
     44 C         -10.6380   17.9200   28.9440 C.3     1  UNL1        0.1739
     45 O         -10.9140   19.1290   28.2280 O.3     1  UNL1       -0.2212
     46 C          -8.1780   17.9650   29.1940 C.3     1  UNL1        0.0507
     47 C          -6.9830   17.7630   28.4850 C.ar    1  UNL1       -0.0204
     48 C          -6.7260   18.5110   27.3280 C.ar    1  UNL1       -0.0042
     49 C          -5.5360   18.3640   26.6100 C.ar    1  UNL1       -0.0003
     50 C          -4.5470   17.4790   27.0430 C.ar    1  UNL1       -0.0000
     51 C          -4.7850   16.7360   28.1990 C.ar    1  UNL1       -0.0003
     52 C          -5.9920   16.8830   28.9270 C.ar    1  UNL1       -0.0042
     53 C          -8.7910   16.3460   26.2740 C.2     1  UNL1        0.4215
     54 O          -8.6530   15.1990   26.7170 O.2     1  UNL1       -0.2246
     55 O          -8.6310   16.6270   24.9650 O.3     1  UNL1       -0.4279
     56 S          -7.1180   15.7950   21.9080 S.2     1  UNL1       -0.0652
     57 N          -8.8850   16.9860   20.7570 N.ar    1  UNL1       -0.2350
@<TRIPOS>BOND
     1     6     2    1
     2     6     5   ar
     3     8     7    1
     4     3     9    1
     5    11    10    1
     6    13    12    1
     7    14    13    1
     8    15    14    1
     9    16    15    1
    10    17    14    1
    11    18    17   ar
    12    19    17   ar
    13    20    19   ar
    14    21    20   ar
    15    22    18   ar
    16    22    21   ar
    17    23    22   ar
    18    24    23   ar
    19    25    24    2
    20    26    24   ar
    21    27    26   ar
    22    27    21   ar
    23    28    27    1
    24    29    28    1
    25    29     4    1
    26    30     4    2
    27    31     4   am
    28    11    31    1
    29    32    11    1
    30    32    33    1
    31    34    32    1
    32    35    10    2
    33    36     3    1
    34    36    10   am
    35    37     3    1
    36    38    37    1
    37    39    38   ar
    38    40    39   ar
    39    41    40   ar
    40    42    41   ar
    41    43    42   ar
    42    43    38   ar
    43    44     9    1
    44    44     8    1
    45    44    45    1
    46     8    46    1
    47    47    46    1
    48    48    47   ar
    49    49    48   ar
    50    50    49   ar
    51    51    50   ar
    52    52    47   ar
    53    52    51   ar
    54    53     7   am
    55    54    53    2
    56    55    53    1
    57    55     2    1
    58    56     6   ar
    59    56     1   ar
    60    57     1   ar
    61    57     5   ar
