@<TRIPOS>MOLECULE
5DGU_5B7_A201
 42 45 0 0 0
SMALL
GASTEIGER

@<TRIPOS>ATOM
      1 C          -8.6010   16.9220   20.8520 C.ar    1  UNL1        0.1388
      2 C          -9.8530   17.0060   21.4840 C.ar    1  UNL1        0.0383
      3 C          -9.9760   16.6270   22.8360 C.ar    1  UNL1        0.0230
      4 C          -8.8760   16.1760   23.5460 C.ar    1  UNL1        0.1224
      5 C          -7.6300   16.0880   22.9290 C.ar    1  UNL1        0.0230
      6 C          -7.4820   16.4590   21.5770 C.ar    1  UNL1        0.0383
      7 S          -9.0540   15.7070   25.2420 S.O2    1  UNL1        0.0634
      8 O         -10.4070   15.1420   25.4000 O.2     1  UNL1       -0.1528
      9 O          -7.8510   14.9080   25.6070 O.2     1  UNL1       -0.1528
     10 N          -8.9740   17.0830   26.1660 N.3     1  UNL1       -0.1529
     11 C          -7.8060   17.9190   25.9890 C.3     1  UNL1        0.0958
     12 C          -7.1840   18.4320   27.2980 C.3     1  UNL1        0.0178
     13 C          -6.7200   17.2910   28.2140 C.3     1  UNL1        0.0015
     14 C          -5.9660   19.3290   26.9850 C.3     1  UNL1        0.0015
     15 C         -10.2110   17.8120   26.3990 C.3     1  UNL1        0.1304
     16 C         -10.5450   17.7910   27.8950 C.3     1  UNL1        0.1898
     17 O         -11.5670   18.7600   28.1830 O.3     1  UNL1       -0.2197
     18 C         -11.0150   16.4230   28.3830 C.3     1  UNL1        0.1347
     19 N         -11.0960   16.3980   29.8460 N.am    1  UNL1       -0.1675
     20 C         -10.4030   15.5960   30.6530 C.2     1  UNL1        0.4210
     21 O          -9.4440   14.8980   30.2890 O.2     1  UNL1       -0.2246
     22 O         -10.8740   15.5920   31.9360 O.3     1  UNL1       -0.4370
     23 C         -10.1240   14.7780   32.8420 C.3     1  UNL1        0.1803
     24 C          -9.1330   15.7150   33.5370 C.3     1  UNL1        0.0761
     25 O         -10.7860   16.2200   35.3490 O.3     1  UNL1       -0.3302
     26 C         -11.6660   15.2170   34.8400 C.3     1  UNL1        0.2411
     27 O         -12.7120   15.8600   34.1060 O.3     1  UNL1       -0.3277
     28 C         -13.2810   14.9230   33.1860 C.3     1  UNL1        0.1744
     29 C         -12.3870   13.6780   33.2050 C.3     1  UNL1        0.1532
     30 C         -11.0930   14.2080   33.8820 C.3     1  UNL1        0.1262
     31 C         -12.3940   16.0220   27.8080 C.3     1  UNL1        0.0508
     32 C         -13.6870   14.4320   29.2670 C.ar    1  UNL1       -0.0042
     33 C         -14.0020   13.1800   29.7590 C.ar    1  UNL1       -0.0003
     34 C         -13.2840   12.0420   29.3550 C.ar    1  UNL1       -0.0000
     35 C         -12.3830   12.1870   28.3210 C.ar    1  UNL1       -0.0003
     36 C         -12.0660   13.4710   27.8030 C.ar    1  UNL1       -0.0042
     37 C         -12.7180   14.5890   28.2870 C.ar    1  UNL1       -0.0204
     38 O          -8.5590   17.3050   19.5410 O.3     1  UNL1       -0.4714
     39 C          -7.2460   17.3640   19.0360 C.3     1  UNL1        0.2525
     40 O         -13.0140   12.7460   34.1160 O.3     1  UNL1       -0.3507
     41 C         -13.9400   11.8970   33.4360 C.3     1  UNL1        0.1741
     42 C          -9.8860   16.7400   34.3630 C.3     1  UNL1        0.1485
@<TRIPOS>BOND
     1     2     1   ar
     2     3     2   ar
     3     4     3   ar
     4     5     4   ar
     5     6     5   ar
     6     6     1   ar
     7     7     4    1
     8     8     7    2
     9     9     7    2
    10     7    10    1
    11    11    10    1
    12    12    11    1
    13    12    13    1
    14    14    12    1
    15    15    10    1
    16    16    15    1
    17    16    17    1
    18    18    16    1
    19    19    18    1
    20    20    19   am
    21    21    20    2
    22    22    20    1
    23    23    22    1
    24    24    23    1
    25    26    25    1
    26    27    26    1
    27    28    27    1
    28    29    28    1
    29    30    29    1
    30    30    26    1
    31    30    23    1
    32    18    31    1
    33    33    32   ar
    34    34    33   ar
    35    35    34   ar
    36    36    35   ar
    37    37    36   ar
    38    37    32   ar
    39    37    31    1
    40    38     1    1
    41    39    38    1
    42    29    40    1
    43    41    40    1
    44    42    25    1
    45    42    24    1
