@<TRIPOS>MOLECULE
5KAO_G43_A500
 42 45 0 0 0
SMALL
GASTEIGER

@<TRIPOS>ATOM
      1 O          -8.9670   14.3240   30.1890 O.2     1  UNL1       -0.1528
      2 S          -9.1650   15.6820   30.5650 S.O2    1  UNL1        0.0634
      3 O          -8.0410   16.5260   30.3240 O.2     1  UNL1       -0.1528
      4 C          -9.6700   15.7590   32.2390 C.ar    1  UNL1        0.1224
      5 C         -10.3490   14.7220   32.9140 C.ar    1  UNL1        0.0230
      6 C         -10.7860   14.7840   34.2410 C.ar    1  UNL1        0.0383
      7 C         -10.5830   15.9400   35.0170 C.ar    1  UNL1        0.1388
      8 C          -9.9090   16.9970   34.3780 C.ar    1  UNL1        0.0383
      9 C          -9.4930   16.8910   33.0590 C.ar    1  UNL1        0.0230
     10 O         -11.0120   16.0060   36.3130 O.3     1  UNL1       -0.4714
     11 C         -11.7420   14.8860   36.8100 C.3     1  UNL1        0.2525
     12 N         -10.4920   16.3230   29.6750 N.3     1  UNL1       -0.1529
     13 C         -11.8550   15.6890   29.7940 C.3     1  UNL1        0.0958
     14 C         -12.6030   15.3870   28.4450 C.3     1  UNL1        0.0178
     15 C         -13.9110   14.6210   28.7100 C.3     1  UNL1        0.0015
     16 C         -11.8040   14.6290   27.3810 C.3     1  UNL1        0.0015
     17 C         -10.5710   17.8030   29.3950 C.3     1  UNL1        0.1304
     18 C         -10.3210   18.1660   27.8810 C.3     1  UNL1        0.1898
     19 O         -10.5590   19.5090   27.6510 O.3     1  UNL1       -0.2197
     20 C          -8.8350   17.8350   27.4340 C.3     1  UNL1        0.1347
     21 C          -7.7570   18.7760   28.0500 C.3     1  UNL1        0.0508
     22 C          -6.3960   18.5760   27.3840 C.ar    1  UNL1       -0.0193
     23 N          -8.7610   17.8920   25.9910 N.am    1  UNL1       -0.1675
     24 C          -8.6750   16.8200   25.1250 C.2     1  UNL1        0.4211
     25 O          -8.5370   15.6530   25.4400 O.2     1  UNL1       -0.2246
     26 O          -8.7620   17.1810   23.7800 O.3     1  UNL1       -0.4345
     27 C          -8.4390   16.2750   22.7440 C.3     1  UNL1        0.2048
     28 C          -7.1020   16.6690   22.0990 C.3     1  UNL1        0.1016
     29 C          -7.4300   17.7560   21.0630 C.3     1  UNL1        0.2388
     30 O          -8.8520   17.7390   20.9420 O.3     1  UNL1       -0.3265
     31 C          -9.3750   16.5450   21.5560 C.3     1  UNL1        0.1884
     32 O          -6.9370   19.0030   21.5210 O.3     1  UNL1       -0.3304
     33 C          -6.3290   18.8550   22.8170 C.3     1  UNL1        0.1451
     34 C          -6.1470   17.3490   23.0580 C.3     1  UNL1        0.0409
     35 C          -5.6700   17.3940   27.6020 C.ar    1  UNL1       -0.0010
     36 C          -4.4310   17.1320   27.0160 C.ar    1  UNL1        0.0375
     37 C          -3.8030   18.0330   26.1450 C.ar    1  UNL1        0.1491
     38 O          -2.5770   17.7770   25.5660 O.3     1  UNL1       -0.4706
     39 C          -2.4290   16.5500   24.8420 C.3     1  UNL1        0.2525
     40 C          -4.5350   19.2300   25.9060 C.ar    1  UNL1        0.0912
     41 C          -5.7770   19.4870   26.4990 C.ar    1  UNL1        0.0102
     42 CL         -3.8090   20.3960   24.8260 Cl      1  UNL1       -0.0791
@<TRIPOS>BOND
     1     2     1    2
     2     3     2    2
     3     4     2    1
     4     5     4   ar
     5     6     5   ar
     6     7     6   ar
     7     8     7   ar
     8     9     4   ar
     9     9     8   ar
    10    10     7    1
    11    11    10    1
    12     2    12    1
    13    13    12    1
    14    14    13    1
    15    14    15    1
    16    16    14    1
    17    17    12    1
    18    18    17    1
    19    18    19    1
    20    20    18    1
    21    20    21    1
    22    22    21    1
    23    23    20    1
    24    24    23   am
    25    25    24    2
    26    26    24    1
    27    27    26    1
    28    28    27    1
    29    29    28    1
    30    29    30    1
    31    31    27    1
    32    31    30    1
    33    32    29    1
    34    33    32    1
    35    34    33    1
    36    28    34    1
    37    35    22   ar
    38    36    35   ar
    39    37    36   ar
    40    38    37    1
    41    39    38    1
    42    40    37   ar
    43    41    22   ar
    44    41    40   ar
    45    42    40    1
