@<TRIPOS>MOLECULE
6DJ5_G52_B201
 42 46 0 0 0
SMALL
GASTEIGER

@<TRIPOS>ATOM
      1 C          -8.5780   16.9910   20.9590 C.ar    1  UNL1        0.1388
      2 C          -9.8340   16.9760   21.5720 C.ar    1  UNL1        0.0383
      3 C          -9.9880   16.5730   22.8940 C.ar    1  UNL1        0.0230
      4 C          -8.8570   16.2300   23.6390 C.ar    1  UNL1        0.1224
      5 C          -7.6110   16.2410   23.0250 C.ar    1  UNL1        0.0230
      6 C          -7.4550   16.6180   21.6940 C.ar    1  UNL1        0.0383
      7 S          -9.0040   15.7440   25.3190 S.O2    1  UNL1        0.0634
      8 O         -10.3440   15.1120   25.5080 O.2     1  UNL1       -0.1528
      9 O          -7.8870   14.8160   25.6670 O.2     1  UNL1       -0.1528
     10 N          -8.8750   17.0410   26.3060 N.3     1  UNL1       -0.1529
     11 C          -7.7160   17.8700   25.9910 C.3     1  UNL1        0.0958
     12 C          -7.0290   18.3480   27.2760 C.3     1  UNL1        0.0178
     13 C          -6.9130   17.2370   28.3210 C.3     1  UNL1        0.0015
     14 C          -5.6510   18.9540   26.9910 C.3     1  UNL1        0.0015
     15 C         -10.1150   17.8070   26.3990 C.3     1  UNL1        0.1304
     16 C         -10.5920   17.8400   27.8440 C.3     1  UNL1        0.1898
     17 O         -11.6460   18.7710   28.0580 O.3     1  UNL1       -0.2197
     18 C         -10.9920   16.4600   28.3720 C.3     1  UNL1        0.1347
     19 N         -11.1440   16.5590   29.8350 N.am    1  UNL1       -0.1675
     20 C         -10.4380   15.8820   30.7390 C.2     1  UNL1        0.4211
     21 O          -9.5440   15.0880   30.4470 O.2     1  UNL1       -0.2246
     22 O         -10.7590   16.1040   32.0450 O.3     1  UNL1       -0.4345
     23 C          -9.9940   15.2940   32.9400 C.3     1  UNL1        0.2049
     24 C          -9.5310   16.1980   34.0880 C.3     1  UNL1        0.1884
     25 O         -10.7160   16.4370   34.8590 O.3     1  UNL1       -0.3265
     26 C         -11.5770   15.3120   34.7200 C.3     1  UNL1        0.2407
     27 O         -12.8480   15.7190   34.2410 O.3     1  UNL1       -0.3056
     28 C         -13.2080   15.0160   33.0610 C.3     1  UNL1        0.2371
     29 C         -12.1590   13.9440   32.8210 C.3     1  UNL1        0.0675
     30 C         -10.9740   14.3780   33.6890 C.3     1  UNL1        0.1041
     31 C         -12.3580   16.0320   27.8100 C.3     1  UNL1        0.0508
     32 C         -13.6690   14.5700   29.3960 C.ar    1  UNL1       -0.0042
     33 C         -14.0130   13.3350   29.9240 C.ar    1  UNL1       -0.0003
     34 C         -13.4060   12.1770   29.4460 C.ar    1  UNL1       -0.0000
     35 C         -12.4580   12.2600   28.4340 C.ar    1  UNL1       -0.0003
     36 C         -12.1190   13.5010   27.8970 C.ar    1  UNL1       -0.0042
     37 C         -12.7280   14.6530   28.3760 C.ar    1  UNL1       -0.0204
     38 O          -8.4530   17.4090   19.6690 O.3     1  UNL1       -0.4714
     39 C          -7.1470   17.1740   19.1580 C.3     1  UNL1        0.2525
     40 O         -14.4320   14.3020   33.3010 O.3     1  UNL1       -0.3305
     41 C         -14.0350   13.1970   34.1330 C.3     1  UNL1        0.1450
     42 C         -12.7970   12.6750   33.4050 C.3     1  UNL1        0.0375
@<TRIPOS>BOND
     1     2     1   ar
     2     3     2   ar
     3     4     3   ar
     4     5     4   ar
     5     6     5   ar
     6     6     1   ar
     7     7     4    1
     8     8     7    2
     9     9     7    2
    10     7    10    1
    11    11    10    1
    12    12    11    1
    13    12    13    1
    14    14    12    1
    15    15    10    1
    16    16    15    1
    17    16    17    1
    18    18    16    1
    19    19    18    1
    20    20    19   am
    21    21    20    2
    22    22    20    1
    23    23    22    1
    24    24    23    1
    25    25    24    1
    26    26    25    1
    27    27    26    1
    28    28    27    1
    29    29    28    1
    30    30    29    1
    31    30    26    1
    32    30    23    1
    33    18    31    1
    34    33    32   ar
    35    34    33   ar
    36    35    34   ar
    37    36    35   ar
    38    37    36   ar
    39    37    32   ar
    40    37    31    1
    41    38     1    1
    42    39    38    1
    43    40    28    1
    44    41    40    1
    45    42    41    1
    46    29    42    1
