@<TRIPOS>MOLECULE
6DJ5_G52_B201
 42 46 0 0 0
SMALL
GASTEIGER

@<TRIPOS>ATOM
      1 C          -8.4700   17.0990   20.9490 C.ar    1  UNL1        0.1388
      2 C          -9.7290   17.0690   21.5550 C.ar    1  UNL1        0.0383
      3 C          -9.8860   16.6600   22.8750 C.ar    1  UNL1        0.0230
      4 C          -8.7550   16.3260   23.6240 C.ar    1  UNL1        0.1224
      5 C          -7.5070   16.3520   23.0170 C.ar    1  UNL1        0.0230
      6 C          -7.3470   16.7360   21.6880 C.ar    1  UNL1        0.0383
      7 S          -8.9070   15.8330   25.3020 S.O2    1  UNL1        0.0634
      8 O         -10.2410   15.1870   25.4810 O.2     1  UNL1       -0.1528
      9 O          -7.7820   14.9150   25.6530 O.2     1  UNL1       -0.1528
     10 N          -8.7960   17.1280   26.2940 N.3     1  UNL1       -0.1529
     11 C          -7.6440   17.9700   25.9880 C.3     1  UNL1        0.0958
     12 C          -6.9690   18.4510   27.2790 C.3     1  UNL1        0.0178
     13 C          -6.8470   17.3380   28.3200 C.3     1  UNL1        0.0015
     14 C          -5.5960   19.0720   27.0030 C.3     1  UNL1        0.0015
     15 C         -10.0450   17.8810   26.3830 C.3     1  UNL1        0.1304
     16 C         -10.5300   17.9040   27.8260 C.3     1  UNL1        0.1898
     17 O         -11.5940   18.8230   28.0360 O.3     1  UNL1       -0.2197
     18 C         -10.9180   16.5180   28.3470 C.3     1  UNL1        0.1347
     19 N         -11.0790   16.6110   29.8090 N.am    1  UNL1       -0.1675
     20 C         -10.3710   15.9380   30.7150 C.2     1  UNL1        0.4211
     21 O          -9.4670   15.1540   30.4250 O.2     1  UNL1       -0.2246
     22 O         -10.7020   16.1520   32.0200 O.3     1  UNL1       -0.4345
     23 C          -9.9330   15.3470   32.9160 C.3     1  UNL1        0.2049
     24 C          -9.4850   16.2520   34.0690 C.3     1  UNL1        0.1884
     25 O         -10.6770   16.4770   34.8350 O.3     1  UNL1       -0.3265
     26 C         -11.5260   15.3430   34.6880 C.3     1  UNL1        0.2407
     27 O         -12.7980   15.7380   34.2030 O.3     1  UNL1       -0.3056
     28 C         -13.1450   15.0360   33.0190 C.3     1  UNL1        0.2371
     29 C         -12.0830   13.9750   32.7810 C.3     1  UNL1        0.0675
     30 C         -10.9070   14.4190   33.6560 C.3     1  UNL1        0.1041
     31 C         -12.2770   16.0780   27.7750 C.3     1  UNL1        0.0508
     32 C         -13.5810   14.5970   29.3500 C.ar    1  UNL1       -0.0042
     33 C         -13.9150   13.3560   29.8720 C.ar    1  UNL1       -0.0003
     34 C         -13.2930   12.2070   29.3930 C.ar    1  UNL1       -0.0000
     35 C         -12.3410   12.3030   28.3870 C.ar    1  UNL1       -0.0003
     36 C         -12.0120   13.5500   27.8560 C.ar    1  UNL1       -0.0042
     37 C         -12.6350   14.6930   28.3350 C.ar    1  UNL1       -0.0204
     38 O          -8.3430   17.5230   19.6610 O.3     1  UNL1       -0.4714
     39 C          -7.0320   17.3030   19.1560 C.3     1  UNL1        0.2525
     40 O         -14.3620   14.3080   33.2500 O.3     1  UNL1       -0.3305
     41 C         -13.9580   13.2040   34.0810 C.3     1  UNL1        0.1450
     42 C         -12.7110   12.6980   33.3570 C.3     1  UNL1        0.0375
@<TRIPOS>BOND
     1     2     1   ar
     2     3     2   ar
     3     4     3   ar
     4     5     4   ar
     5     6     1   ar
     6     6     5   ar
     7     7     4    1
     8     8     7    2
     9     9     7    2
    10     7    10    1
    11    11    10    1
    12    12    11    1
    13    12    13    1
    14    14    12    1
    15    15    10    1
    16    16    15    1
    17    16    17    1
    18    18    16    1
    19    19    18    1
    20    20    19   am
    21    21    20    2
    22    22    20    1
    23    23    22    1
    24    24    23    1
    25    25    24    1
    26    26    25    1
    27    27    26    1
    28    28    27    1
    29    29    28    1
    30    30    29    1
    31    30    26    1
    32    30    23    1
    33    18    31    1
    34    33    32   ar
    35    34    33   ar
    36    35    34   ar
    37    36    35   ar
    38    37    36   ar
    39    37    32   ar
    40    37    31    1
    41    38     1    1
    42    39    38    1
    43    40    28    1
    44    41    40    1
    45    42    41    1
    46    29    42    1
