@<TRIPOS>MOLECULE
8ESY_X7B_B201
 43 47 0 0 0
SMALL
GASTEIGER

@<TRIPOS>ATOM
      1 B         -11.0990   15.1260   36.6180 B       1  UNL1        0.0000
      2 C          -9.8280   16.4700   33.1150 C.ar    1  UNL1        0.0000
      3 C          -9.9610   15.3070   32.4090 C.ar    1  UNL1        0.0000
      4 C         -10.4300   14.1830   33.0260 C.ar    1  UNL1        0.0000
      5 C         -10.7710   14.2320   34.4100 C.ar    1  UNL1        0.0000
      6 C         -10.6310   15.3470   35.1080 C.ar    1  UNL1        0.0000
      7 C         -10.1520   16.5160   34.4550 C.ar    1  UNL1        0.0000
      8 C         -11.2830   13.1640   35.3470 C.2     1  UNL1        0.0000
      9 C         -12.0960   15.4550   29.9240 C.3     1  UNL1        0.0000
     10 C         -10.6710   17.5000   29.5460 C.3     1  UNL1        0.0000
     11 C         -10.5260   17.8310   28.0670 C.3     1  UNL1        0.0000
     12 C          -9.0900   17.5240   27.6490 C.3     1  UNL1        0.0000
     13 C          -9.0900   16.5580   25.2560 C.2     1  UNL1        0.0000
     14 C          -9.0580   16.0600   22.8370 C.3     1  UNL1        0.0000
     15 C          -9.8860   16.3050   21.9550 C.3     1  UNL1        0.0000
     16 C          -7.7660   17.1370   21.3200 C.3     1  UNL1        0.0000
     17 C          -7.5660   16.3750   22.2340 C.3     1  UNL1        0.0000
     18 C          -6.5600   17.1340   23.2180 C.3     1  UNL1        0.0000
     19 C          -6.7600   18.5420   22.8980 C.3     1  UNL1        0.0000
     20 C          -8.0270   18.4940   28.1590 C.3     1  UNL1        0.0000
     21 C          -6.6710   18.1300   27.5400 C.ar    1  UNL1        0.0000
     22 C          -5.9990   16.9710   27.9040 C.ar    1  UNL1        0.0000
     23 C          -4.7720   16.6640   27.3360 C.ar    1  UNL1        0.0000
     24 C          -4.2180   17.4980   26.3830 C.ar    1  UNL1        0.0000
     25 C          -4.8780   18.6590   26.0240 C.ar    1  UNL1        0.0000
     26 C          -6.1100   18.9600   26.5800 C.ar    1  UNL1        0.0000
     27 C         -12.8130   15.1950   28.5960 C.3     1  UNL1        0.0000
     28 C         -14.2350   14.7040   28.8710 C.3     1  UNL1        0.0000
     29 C         -12.0740   14.2430   27.6560 C.3     1  UNL1        0.0000
     30 N         -10.8040   16.0950   29.8420 N.3     1  UNL1        0.0000
     31 N          -9.1490   17.6380   26.2050 N.am    1  UNL1        0.0000
     32 O         -11.4320   13.7750   36.6190 O.3     1  UNL1        0.0000
     33 O         -10.1870   15.4170   37.7780 O.3     1  UNL1        0.0000
     34 O         -11.5190   12.0300   35.0930 O.2     1  UNL1        0.0000
     35 O          -8.9650   15.4300   25.5380 O.2     1  UNL1        0.0000
     36 O          -9.2250   17.0210   23.9570 O.3     1  UNL1        0.0000
     37 O          -9.2740   17.4070   21.1550 O.3     1  UNL1        0.0000
     38 O          -7.1890   18.6040   21.6670 O.3     1  UNL1        0.0000
     39 O         -10.8810   19.1680   27.8500 O.3     1  UNL1        0.0000
     40 O          -9.4010   13.9650   30.0230 O.2     1  UNL1        0.0000
     41 O          -8.3800   16.1280   30.4850 O.2     1  UNL1        0.0000
     42 O         -12.2770   15.8490   36.8270 O.3     1  UNL1        0.0000
     43 S          -9.5400   15.2970   30.6300 S.O2    1  UNL1        0.0000
@<TRIPOS>UNITY_ATOM_ATTR
1 1
charge -1
@<TRIPOS>BOND
     1     3     2   ar
     2     4     3   ar
     3     5     4   ar
     4     6     1    1
     5     6     5   ar
     6     7     6   ar
     7     7     2   ar
     8     8     5    1
     9    11    10    1
    10    12    11    1
    11    15    14    1
    12    17    14    1
    13    17    16    1
    14    17    18    1
    15    19    18    1
    16    12    20    1
    17    21    20    1
    18    22    21   ar
    19    23    22   ar
    20    24    23   ar
    21    25    24   ar
    22    26    21   ar
    23    26    25   ar
    24    27     9    1
    25    27    28    1
    26    29    27    1
    27    30     9    1
    28    30    10    1
    29    31    13   am
    30    31    12    1
    31    32     8    1
    32    32     1    1
    33     1    33    1
    34    34     8    2
    35    35    13    2
    36    14    36    1
    37    36    13    1
    38    37    15    1
    39    16    37    1
    40    38    16    1
    41    38    19    1
    42    11    39    1
    43    42     1    1
    44    43    41    2
    45    43    40    2
    46    43    30    1
    47    43     3    1
